
**** 02/20/20 22:53:27 ******* PSpice 17.4.0 (Nov 2018) ******* ID# 0 ********

 ** Profile: "SCHEMATIC1-test"  [ C:\Users\Heol\Documents\ProjetPluri\minimood\Hardware\VCF_Orcad_simulation\vcf-pspicefiles\schemati


 ****     CIRCUIT DESCRIPTION


******************************************************************************




** Creating circuit file "test.cir" 
** WARNING: THIS AUTOMATICALLY GENERATED FILE MAY BE OVERWRITTEN BY SUBSEQUENT SIMULATIONS

*Libraries: 
* Profile Libraries :
* Local Libraries :
* From [PSPICE NETLIST] section of C:\Users\Heol\AppData\Roaming\SPB_Data\cdssetup\OrCAD_PSpice\17.4.0\PSpice.ini file:
.lib "nom.lib" 

*Analysis directives: 
.AC DEC 1k 20 20k
.STEP LIN PARAM k 0 3 0.03 
.OPTIONS ADVCONV
.PROBE64 V(alias(*)) I(alias(*)) W(alias(*)) D(alias(*)) NOISE(alias(*)) 
.INC "..\SCHEMATIC1.net" 



**** INCLUDING SCHEMATIC1.net ****
* source VCF
V_V4         VCC 0 5Vdc
R_R15         N06499 N06351  1meg TC=0,0 
R_R18         0 OUT  10meg TC=0,0 
R_R13         N06339 N06345  10k TC=0,0 
C_C7         IN N06499  4.7u  TC=0,0 
R_R17         VCC N06665  100k TC=0,0 
X_R11         N06157 N06157 N06231 POT PARAMS: SET=1 VALUE=10K
V_V5         IN 0 DC 1.5Vdc AC 1.5Vac 
C_C6         N06351 N06219  10n  TC=0,0 
C_C5         N06219 N06231  10n  TC=0,0 
Q_Q2         N06219 N06345 0 BC547B 
C_C8         N06157 OUT  4.7u  TC=0,0 
R_R14         N06351 N06157  470k TC=0,0 
R_R16         0 N06499  100k TC=0,0 
R_R19         0 N06665  100k TC=0,0 
X_U3         N06665 N06351 VCC 0 N06157 MCP6001
X_R12         0 N06339 VCC POT PARAMS: SET=1 VALUE=10K
R_R20         DAC_OUT N06345  10k TC=0,0 
V_V6         DAC_OUT 0 {k}
.PARAM  k=0

**** RESUMING test.cir ****
.END

INFO(ORPSIM-16573): AC analysis does not support expression evaluation at each frequency. ABM devices with non-linear operations will be evaluated only at bias point.

**** 02/20/20 22:53:27 ******* PSpice 17.4.0 (Nov 2018) ******* ID# 0 ********

 ** Profile: "SCHEMATIC1-test"  [ C:\Users\Heol\Documents\ProjetPluri\minimood\Hardware\VCF_Orcad_simulation\vcf-pspicefiles\schemati


 ****     Diode MODEL PARAMETERS


******************************************************************************




               X_U3.DESD       X_U3.DL         X_U3.DN1        
          IS    1.000000E-15    1.000000E-15    1.000000E-12 
          KF                                  146.000000E-18 


**** 02/20/20 22:53:27 ******* PSpice 17.4.0 (Nov 2018) ******* ID# 0 ********

 ** Profile: "SCHEMATIC1-test"  [ C:\Users\Heol\Documents\ProjetPluri\minimood\Hardware\VCF_Orcad_simulation\vcf-pspicefiles\schemati


 ****     BJT MODEL PARAMETERS


******************************************************************************




               BC547B          
               NPN             
       LEVEL    1            
          IS    7.049000E-15 
          BF  374.6          
          NF    1            
         VAF   62.79         
         IKF     .08157      
         ISE   68.000000E-15 
          NE    1.576        
          BR    1            
          NR    1            
         IKR    3.924        
         ISC   12.400000E-15 
          NC    1.835        
          NK     .4767       
         ISS    0            
          RE    0            
          RC     .9747       
         CJE   11.500000E-12 
         VJE     .5          
         MJE     .6715       
         CJC    5.250000E-12 
         VJC     .5697       
         MJC     .3147       
        XCJC    1            
         CJS    0            
         VJS     .75         
          TF  410.200000E-12 
         XTF   40.06         
         VTF   10            
         ITF    1.491        
          TR   10.000000E-09 
         XTB    1.5          
          KF    0            
          AF    1            
          CN    2.42         
           D     .87         


**** 02/20/20 22:53:27 ******* PSpice 17.4.0 (Nov 2018) ******* ID# 0 ********

 ** Profile: "SCHEMATIC1-test"  [ C:\Users\Heol\Documents\ProjetPluri\minimood\Hardware\VCF_Orcad_simulation\vcf-pspicefiles\schemati


 ****     MOSFET MODEL PARAMETERS


******************************************************************************




               X_U3.NMI        
               NMOS            
       LEVEL    1            
           L  100.000000E-06 
           W  100.000000E-06 
         VTO    0            
          KP   20.000000E-06 
       GAMMA    0            
         PHI     .6          
      LAMBDA    0            
          IS   10.000000E-15 
          JS    0            
          PB     .8          
        PBSW     .8          
          CJ    0            
        CJSW    0            
        CGSO    0            
        CGDO    0            
        CGBO    0            
         TOX    0            
          XJ    0            
       UCRIT   10.000000E+03 
      DIOMOD    1            
         VFB    0            
        LETA    0            
        WETA    0            
          U0    0            
        TEMP    0            
         VDD    5            
       XPART    0            


**** 02/20/20 22:53:27 ******* PSpice 17.4.0 (Nov 2018) ******* ID# 0 ********

 ** Profile: "SCHEMATIC1-test"  [ C:\Users\Heol\Documents\ProjetPluri\minimood\Hardware\VCF_Orcad_simulation\vcf-pspicefiles\schemati


 ****     Resistor MODEL PARAMETERS


******************************************************************************




               X_U3.REXP       
           R    1            
         TCE   10.1          


**** 02/20/20 22:53:27 ******* PSpice 17.4.0 (Nov 2018) ******* ID# 0 ********

 ** Profile: "SCHEMATIC1-test"  [ C:\Users\Heol\Documents\ProjetPluri\minimood\Hardware\VCF_Orcad_simulation\vcf-pspicefiles\schemati


 ****     SMALL SIGNAL BIAS SOLUTION       TEMPERATURE =   27.000 DEG C

 ****     CURRENT STEP                     PARAM K =    0     


******************************************************************************



 NODE   VOLTAGE     NODE   VOLTAGE     NODE   VOLTAGE     NODE   VOLTAGE


(   IN)    1.5000  (  OUT)    0.0000  (  VCC)    5.0000  (N06157)    3.5673     

(N06219) 136.6E-09 (N06231)    3.5673 (N06339) 500.0E-09 (N06345) 250.0E-09     

(N06351)    2.4994 (N06499)     .2272 (N06665)    2.5000 (DAC_OUT)    0.0000    

(X_U3.10)    5.5000                   (X_U3.11)    5.3275                       

(X_U3.12)    5.3275                   (X_U3.13)    5.3000                       

(X_U3.14)    2.4994                   (X_U3.15)    2.1543                       

(X_U3.16)    -.3000                   (X_U3.20)     .5137                       

(X_U3.21)    -.5137                   (X_U3.26)-135.0E-06                       

(X_U3.27)-241.5E-06                   (X_U3.30)     .0022                       

(X_U3.31)  111.2500                   (X_U3.32) -130.2000                       

(X_U3.33)     .0022                   (X_U3.34)     .9391                       

(X_U3.35)     .9391                   (X_U3.37)     .9391                       

(X_U3.38)     .9391                   (X_U3.39)     .9391                       

(X_U3.50)     .0023                   (X_U3.51)     .0023                       

(X_U3.52) 229.7E-12                   (X_U3.55)    4.9992                       

(X_U3.56)     .0012                   (X_U3.57)    3.5673                       

(X_U3.61) 109.5E-06                   (X_U3.62) 58.20E-12                       

(X_U3.70) 1.000E-06                   (X_U3.71)    2.5000                       

(X_U3.96)    3.5673                   (X_U3.98) 1.079E-06                       

(X_U3.99) 2.272E-06                   




    VOLTAGE SOURCE CURRENTS
    NAME         CURRENT

    V_V4        -6.378E-04
    V_V5         0.000E+00
    V_V6         2.500E-11
    X_U3.V10     5.000E-05
    X_U3.V16     2.828E-12
    X_U3.V13     2.829E-12

    TOTAL POWER DISSIPATION   3.21E-03  WATTS


**** 02/20/20 22:53:27 ******* PSpice 17.4.0 (Nov 2018) ******* ID# 0 ********

 ** Profile: "SCHEMATIC1-test"  [ C:\Users\Heol\Documents\ProjetPluri\minimood\Hardware\VCF_Orcad_simulation\vcf-pspicefiles\schemati


 ****     SMALL SIGNAL BIAS SOLUTION       TEMPERATURE =   27.000 DEG C

 ****     CURRENT STEP                     PARAM K =     .03  


******************************************************************************



 NODE   VOLTAGE     NODE   VOLTAGE     NODE   VOLTAGE     NODE   VOLTAGE


(   IN)    1.5000  (  OUT)    0.0000  (  VCC)    5.0000  (N06157)    3.5673     

(N06219)     .0079 (N06231)    3.5673 (N06339) 501.5E-09 (N06345)     .0150     

(N06351)    2.4994 (N06499)     .2272 (N06665)    2.5000 (DAC_OUT)     .0300    

(X_U3.10)    5.5000                   (X_U3.11)    5.3275                       

(X_U3.12)    5.3275                   (X_U3.13)    5.3000                       

(X_U3.14)    2.4994                   (X_U3.15)    2.1543                       

(X_U3.16)    -.3000                   (X_U3.20)     .5137                       

(X_U3.21)    -.5137                   (X_U3.26)-135.0E-06                       

(X_U3.27)-241.5E-06                   (X_U3.30)     .0022                       

(X_U3.31)  111.2500                   (X_U3.32) -130.2000                       

(X_U3.33)     .0022                   (X_U3.34)     .9391                       

(X_U3.35)     .9391                   (X_U3.37)     .9391                       

(X_U3.38)     .9391                   (X_U3.39)     .9391                       

(X_U3.50)     .0023                   (X_U3.51)     .0023                       

(X_U3.52) 229.7E-12                   (X_U3.55)    4.9992                       

(X_U3.56)     .0012                   (X_U3.57)    3.5673                       

(X_U3.61) 109.5E-06                   (X_U3.62) 58.20E-12                       

(X_U3.70) 1.000E-06                   (X_U3.71)    2.5000                       

(X_U3.96)    3.5673                   (X_U3.98) 1.079E-06                       

(X_U3.99) 2.272E-06                   




    VOLTAGE SOURCE CURRENTS
    NAME         CURRENT

    V_V4        -6.378E-04
    V_V5         0.000E+00
    V_V6        -1.500E-06
    X_U3.V10     5.000E-05
    X_U3.V16     2.828E-12
    X_U3.V13     2.829E-12

    TOTAL POWER DISSIPATION   3.21E-03  WATTS


**** 02/20/20 22:53:27 ******* PSpice 17.4.0 (Nov 2018) ******* ID# 0 ********

 ** Profile: "SCHEMATIC1-test"  [ C:\Users\Heol\Documents\ProjetPluri\minimood\Hardware\VCF_Orcad_simulation\vcf-pspicefiles\schemati


 ****     SMALL SIGNAL BIAS SOLUTION       TEMPERATURE =   27.000 DEG C

 ****     CURRENT STEP                     PARAM K =     .06  


******************************************************************************



 NODE   VOLTAGE     NODE   VOLTAGE     NODE   VOLTAGE     NODE   VOLTAGE


(   IN)    1.5000  (  OUT)    0.0000  (  VCC)    5.0000  (N06157)    3.5673     

(N06219)     .0151 (N06231)    3.5673 (N06339) 503.0E-09 (N06345)     .0300     

(N06351)    2.4994 (N06499)     .2272 (N06665)    2.5000 (DAC_OUT)     .0600    

(X_U3.10)    5.5000                   (X_U3.11)    5.3275                       

(X_U3.12)    5.3275                   (X_U3.13)    5.3000                       

(X_U3.14)    2.4994                   (X_U3.15)    2.1543                       

(X_U3.16)    -.3000                   (X_U3.20)     .5137                       

(X_U3.21)    -.5137                   (X_U3.26)-135.0E-06                       

(X_U3.27)-241.5E-06                   (X_U3.30)     .0022                       

(X_U3.31)  111.2500                   (X_U3.32) -130.2000                       

(X_U3.33)     .0022                   (X_U3.34)     .9391                       

(X_U3.35)     .9391                   (X_U3.37)     .9391                       

(X_U3.38)     .9391                   (X_U3.39)     .9391                       

(X_U3.50)     .0023                   (X_U3.51)     .0023                       

(X_U3.52) 229.7E-12                   (X_U3.55)    4.9992                       

(X_U3.56)     .0012                   (X_U3.57)    3.5673                       

(X_U3.61) 109.5E-06                   (X_U3.62) 58.20E-12                       

(X_U3.70) 1.000E-06                   (X_U3.71)    2.5000                       

(X_U3.96)    3.5673                   (X_U3.98) 1.079E-06                       

(X_U3.99) 2.272E-06                   




    VOLTAGE SOURCE CURRENTS
    NAME         CURRENT

    V_V4        -6.378E-04
    V_V5         0.000E+00
    V_V6        -3.000E-06
    X_U3.V10     5.000E-05
    X_U3.V16     2.828E-12
    X_U3.V13     2.829E-12

    TOTAL POWER DISSIPATION   3.21E-03  WATTS


**** 02/20/20 22:53:27 ******* PSpice 17.4.0 (Nov 2018) ******* ID# 0 ********

 ** Profile: "SCHEMATIC1-test"  [ C:\Users\Heol\Documents\ProjetPluri\minimood\Hardware\VCF_Orcad_simulation\vcf-pspicefiles\schemati


 ****     SMALL SIGNAL BIAS SOLUTION       TEMPERATURE =   27.000 DEG C

 ****     CURRENT STEP                     PARAM K =     .09  


******************************************************************************



 NODE   VOLTAGE     NODE   VOLTAGE     NODE   VOLTAGE     NODE   VOLTAGE


(   IN)    1.5000  (  OUT)    0.0000  (  VCC)    5.0000  (N06157)    3.5673     

(N06219)     .0209 (N06231)    3.5673 (N06339) 504.5E-09 (N06345)     .0450     

(N06351)    2.4994 (N06499)     .2272 (N06665)    2.5000 (DAC_OUT)     .0900    

(X_U3.10)    5.5000                   (X_U3.11)    5.3275                       

(X_U3.12)    5.3275                   (X_U3.13)    5.3000                       

(X_U3.14)    2.4994                   (X_U3.15)    2.1543                       

(X_U3.16)    -.3000                   (X_U3.20)     .5137                       

(X_U3.21)    -.5137                   (X_U3.26)-135.0E-06                       

(X_U3.27)-241.5E-06                   (X_U3.30)     .0022                       

(X_U3.31)  111.2500                   (X_U3.32) -130.2000                       

(X_U3.33)     .0022                   (X_U3.34)     .9391                       

(X_U3.35)     .9391                   (X_U3.37)     .9391                       

(X_U3.38)     .9391                   (X_U3.39)     .9391                       

(X_U3.50)     .0023                   (X_U3.51)     .0023                       

(X_U3.52) 229.7E-12                   (X_U3.55)    4.9992                       

(X_U3.56)     .0012                   (X_U3.57)    3.5673                       

(X_U3.61) 109.5E-06                   (X_U3.62) 58.20E-12                       

(X_U3.70) 1.000E-06                   (X_U3.71)    2.5000                       

(X_U3.96)    3.5673                   (X_U3.98) 1.079E-06                       

(X_U3.99) 2.272E-06                   




    VOLTAGE SOURCE CURRENTS
    NAME         CURRENT

    V_V4        -6.378E-04
    V_V5         0.000E+00
    V_V6        -4.500E-06
    X_U3.V10     5.000E-05
    X_U3.V16     2.828E-12
    X_U3.V13     2.829E-12

    TOTAL POWER DISSIPATION   3.21E-03  WATTS


**** 02/20/20 22:53:27 ******* PSpice 17.4.0 (Nov 2018) ******* ID# 0 ********

 ** Profile: "SCHEMATIC1-test"  [ C:\Users\Heol\Documents\ProjetPluri\minimood\Hardware\VCF_Orcad_simulation\vcf-pspicefiles\schemati


 ****     SMALL SIGNAL BIAS SOLUTION       TEMPERATURE =   27.000 DEG C

 ****     CURRENT STEP                     PARAM K =     .12  


******************************************************************************



 NODE   VOLTAGE     NODE   VOLTAGE     NODE   VOLTAGE     NODE   VOLTAGE


(   IN)    1.5000  (  OUT)    0.0000  (  VCC)    5.0000  (N06157)    3.5673     

(N06219)     .0249 (N06231)    3.5673 (N06339) 506.0E-09 (N06345)     .0600     

(N06351)    2.4994 (N06499)     .2272 (N06665)    2.5000 (DAC_OUT)     .1200    

(X_U3.10)    5.5000                   (X_U3.11)    5.3275                       

(X_U3.12)    5.3275                   (X_U3.13)    5.3000                       

(X_U3.14)    2.4994                   (X_U3.15)    2.1543                       

(X_U3.16)    -.3000                   (X_U3.20)     .5137                       

(X_U3.21)    -.5137                   (X_U3.26)-135.0E-06                       

(X_U3.27)-241.5E-06                   (X_U3.30)     .0022                       

(X_U3.31)  111.2500                   (X_U3.32) -130.2000                       

(X_U3.33)     .0022                   (X_U3.34)     .9391                       

(X_U3.35)     .9391                   (X_U3.37)     .9391                       

(X_U3.38)     .9391                   (X_U3.39)     .9391                       

(X_U3.50)     .0023                   (X_U3.51)     .0023                       

(X_U3.52) 229.7E-12                   (X_U3.55)    4.9992                       

(X_U3.56)     .0012                   (X_U3.57)    3.5673                       

(X_U3.61) 109.5E-06                   (X_U3.62) 58.20E-12                       

(X_U3.70) 1.000E-06                   (X_U3.71)    2.5000                       

(X_U3.96)    3.5673                   (X_U3.98) 1.079E-06                       

(X_U3.99) 2.272E-06                   




    VOLTAGE SOURCE CURRENTS
    NAME         CURRENT

    V_V4        -6.378E-04
    V_V5         0.000E+00
    V_V6        -6.000E-06
    X_U3.V10     5.000E-05
    X_U3.V16     2.828E-12
    X_U3.V13     2.829E-12

    TOTAL POWER DISSIPATION   3.21E-03  WATTS


**** 02/20/20 22:53:27 ******* PSpice 17.4.0 (Nov 2018) ******* ID# 0 ********

 ** Profile: "SCHEMATIC1-test"  [ C:\Users\Heol\Documents\ProjetPluri\minimood\Hardware\VCF_Orcad_simulation\vcf-pspicefiles\schemati


 ****     SMALL SIGNAL BIAS SOLUTION       TEMPERATURE =   27.000 DEG C

 ****     CURRENT STEP                     PARAM K =     .15  


******************************************************************************



 NODE   VOLTAGE     NODE   VOLTAGE     NODE   VOLTAGE     NODE   VOLTAGE


(   IN)    1.5000  (  OUT)    0.0000  (  VCC)    5.0000  (N06157)    3.5673     

(N06219)     .0267 (N06231)    3.5673 (N06339) 507.5E-09 (N06345)     .0750     

(N06351)    2.4994 (N06499)     .2272 (N06665)    2.5000 (DAC_OUT)     .1500    

(X_U3.10)    5.5000                   (X_U3.11)    5.3275                       

(X_U3.12)    5.3275                   (X_U3.13)    5.3000                       

(X_U3.14)    2.4994                   (X_U3.15)    2.1543                       

(X_U3.16)    -.3000                   (X_U3.20)     .5137                       

(X_U3.21)    -.5137                   (X_U3.26)-135.0E-06                       

(X_U3.27)-241.5E-06                   (X_U3.30)     .0022                       

(X_U3.31)  111.2500                   (X_U3.32) -130.2000                       

(X_U3.33)     .0022                   (X_U3.34)     .9391                       

(X_U3.35)     .9391                   (X_U3.37)     .9391                       

(X_U3.38)     .9391                   (X_U3.39)     .9391                       

(X_U3.50)     .0023                   (X_U3.51)     .0023                       

(X_U3.52) 229.7E-12                   (X_U3.55)    4.9992                       

(X_U3.56)     .0012                   (X_U3.57)    3.5673                       

(X_U3.61) 109.5E-06                   (X_U3.62) 58.20E-12                       

(X_U3.70) 1.000E-06                   (X_U3.71)    2.5000                       

(X_U3.96)    3.5673                   (X_U3.98) 1.079E-06                       

(X_U3.99) 2.272E-06                   




    VOLTAGE SOURCE CURRENTS
    NAME         CURRENT

    V_V4        -6.378E-04
    V_V5         0.000E+00
    V_V6        -7.500E-06
    X_U3.V10     5.000E-05
    X_U3.V16     2.828E-12
    X_U3.V13     2.829E-12

    TOTAL POWER DISSIPATION   3.21E-03  WATTS


**** 02/20/20 22:53:27 ******* PSpice 17.4.0 (Nov 2018) ******* ID# 0 ********

 ** Profile: "SCHEMATIC1-test"  [ C:\Users\Heol\Documents\ProjetPluri\minimood\Hardware\VCF_Orcad_simulation\vcf-pspicefiles\schemati


 ****     SMALL SIGNAL BIAS SOLUTION       TEMPERATURE =   27.000 DEG C

 ****     CURRENT STEP                     PARAM K =     .18  


******************************************************************************



 NODE   VOLTAGE     NODE   VOLTAGE     NODE   VOLTAGE     NODE   VOLTAGE


(   IN)    1.5000  (  OUT)    0.0000  (  VCC)    5.0000  (N06157)    3.5673     

(N06219)     .0265 (N06231)    3.5673 (N06339) 509.0E-09 (N06345)     .0900     

(N06351)    2.4994 (N06499)     .2272 (N06665)    2.5000 (DAC_OUT)     .1800    

(X_U3.10)    5.5000                   (X_U3.11)    5.3275                       

(X_U3.12)    5.3275                   (X_U3.13)    5.3000                       

(X_U3.14)    2.4994                   (X_U3.15)    2.1543                       

(X_U3.16)    -.3000                   (X_U3.20)     .5137                       

(X_U3.21)    -.5137                   (X_U3.26)-135.0E-06                       

(X_U3.27)-241.5E-06                   (X_U3.30)     .0022                       

(X_U3.31)  111.2500                   (X_U3.32) -130.2000                       

(X_U3.33)     .0022                   (X_U3.34)     .9391                       

(X_U3.35)     .9391                   (X_U3.37)     .9391                       

(X_U3.38)     .9391                   (X_U3.39)     .9391                       

(X_U3.50)     .0023                   (X_U3.51)     .0023                       

(X_U3.52) 229.7E-12                   (X_U3.55)    4.9992                       

(X_U3.56)     .0012                   (X_U3.57)    3.5673                       

(X_U3.61) 109.5E-06                   (X_U3.62) 58.20E-12                       

(X_U3.70) 1.000E-06                   (X_U3.71)    2.5000                       

(X_U3.96)    3.5673                   (X_U3.98) 1.079E-06                       

(X_U3.99) 2.272E-06                   




    VOLTAGE SOURCE CURRENTS
    NAME         CURRENT

    V_V4        -6.378E-04
    V_V5         0.000E+00
    V_V6        -9.000E-06
    X_U3.V10     5.000E-05
    X_U3.V16     2.828E-12
    X_U3.V13     2.829E-12

    TOTAL POWER DISSIPATION   3.22E-03  WATTS


**** 02/20/20 22:53:27 ******* PSpice 17.4.0 (Nov 2018) ******* ID# 0 ********

 ** Profile: "SCHEMATIC1-test"  [ C:\Users\Heol\Documents\ProjetPluri\minimood\Hardware\VCF_Orcad_simulation\vcf-pspicefiles\schemati


 ****     SMALL SIGNAL BIAS SOLUTION       TEMPERATURE =   27.000 DEG C

 ****     CURRENT STEP                     PARAM K =     .21  


******************************************************************************



 NODE   VOLTAGE     NODE   VOLTAGE     NODE   VOLTAGE     NODE   VOLTAGE


(   IN)    1.5000  (  OUT)    0.0000  (  VCC)    5.0000  (N06157)    3.5673     

(N06219)     .0253 (N06231)    3.5673 (N06339) 510.5E-09 (N06345)     .1050     

(N06351)    2.4994 (N06499)     .2272 (N06665)    2.5000 (DAC_OUT)     .2100    

(X_U3.10)    5.5000                   (X_U3.11)    5.3275                       

(X_U3.12)    5.3275                   (X_U3.13)    5.3000                       

(X_U3.14)    2.4994                   (X_U3.15)    2.1543                       

(X_U3.16)    -.3000                   (X_U3.20)     .5137                       

(X_U3.21)    -.5137                   (X_U3.26)-135.0E-06                       

(X_U3.27)-241.5E-06                   (X_U3.30)     .0022                       

(X_U3.31)  111.2500                   (X_U3.32) -130.2000                       

(X_U3.33)     .0022                   (X_U3.34)     .9391                       

(X_U3.35)     .9391                   (X_U3.37)     .9391                       

(X_U3.38)     .9391                   (X_U3.39)     .9391                       

(X_U3.50)     .0023                   (X_U3.51)     .0023                       

(X_U3.52) 229.7E-12                   (X_U3.55)    4.9992                       

(X_U3.56)     .0012                   (X_U3.57)    3.5673                       

(X_U3.61) 109.5E-06                   (X_U3.62) 58.20E-12                       

(X_U3.70) 1.000E-06                   (X_U3.71)    2.5000                       

(X_U3.96)    3.5673                   (X_U3.98) 1.079E-06                       

(X_U3.99) 2.272E-06                   




    VOLTAGE SOURCE CURRENTS
    NAME         CURRENT

    V_V4        -6.378E-04
    V_V5         0.000E+00
    V_V6        -1.050E-05
    X_U3.V10     5.000E-05
    X_U3.V16     2.828E-12
    X_U3.V13     2.829E-12

    TOTAL POWER DISSIPATION   3.22E-03  WATTS


**** 02/20/20 22:53:27 ******* PSpice 17.4.0 (Nov 2018) ******* ID# 0 ********

 ** Profile: "SCHEMATIC1-test"  [ C:\Users\Heol\Documents\ProjetPluri\minimood\Hardware\VCF_Orcad_simulation\vcf-pspicefiles\schemati


 ****     SMALL SIGNAL BIAS SOLUTION       TEMPERATURE =   27.000 DEG C

 ****     CURRENT STEP                     PARAM K =     .24  


******************************************************************************



 NODE   VOLTAGE     NODE   VOLTAGE     NODE   VOLTAGE     NODE   VOLTAGE


(   IN)    1.5000  (  OUT)    0.0000  (  VCC)    5.0000  (N06157)    3.5673     

(N06219)     .0238 (N06231)    3.5673 (N06339) 512.0E-09 (N06345)     .1200     

(N06351)    2.4994 (N06499)     .2272 (N06665)    2.5000 (DAC_OUT)     .2400    

(X_U3.10)    5.5000                   (X_U3.11)    5.3275                       

(X_U3.12)    5.3275                   (X_U3.13)    5.3000                       

(X_U3.14)    2.4994                   (X_U3.15)    2.1543                       

(X_U3.16)    -.3000                   (X_U3.20)     .5137                       

(X_U3.21)    -.5137                   (X_U3.26)-135.0E-06                       

(X_U3.27)-241.5E-06                   (X_U3.30)     .0022                       

(X_U3.31)  111.2500                   (X_U3.32) -130.2000                       

(X_U3.33)     .0022                   (X_U3.34)     .9391                       

(X_U3.35)     .9391                   (X_U3.37)     .9391                       

(X_U3.38)     .9391                   (X_U3.39)     .9391                       

(X_U3.50)     .0023                   (X_U3.51)     .0023                       

(X_U3.52) 229.7E-12                   (X_U3.55)    4.9992                       

(X_U3.56)     .0012                   (X_U3.57)    3.5673                       

(X_U3.61) 109.5E-06                   (X_U3.62) 58.20E-12                       

(X_U3.70) 1.000E-06                   (X_U3.71)    2.5000                       

(X_U3.96)    3.5673                   (X_U3.98) 1.079E-06                       

(X_U3.99) 2.272E-06                   




    VOLTAGE SOURCE CURRENTS
    NAME         CURRENT

    V_V4        -6.378E-04
    V_V5         0.000E+00
    V_V6        -1.200E-05
    X_U3.V10     5.000E-05
    X_U3.V16     2.828E-12
    X_U3.V13     2.829E-12

    TOTAL POWER DISSIPATION   3.22E-03  WATTS


**** 02/20/20 22:53:27 ******* PSpice 17.4.0 (Nov 2018) ******* ID# 0 ********

 ** Profile: "SCHEMATIC1-test"  [ C:\Users\Heol\Documents\ProjetPluri\minimood\Hardware\VCF_Orcad_simulation\vcf-pspicefiles\schemati


 ****     SMALL SIGNAL BIAS SOLUTION       TEMPERATURE =   27.000 DEG C

 ****     CURRENT STEP                     PARAM K =     .27  


******************************************************************************



 NODE   VOLTAGE     NODE   VOLTAGE     NODE   VOLTAGE     NODE   VOLTAGE


(   IN)    1.5000  (  OUT)    0.0000  (  VCC)    5.0000  (N06157)    3.5673     

(N06219)     .0224 (N06231)    3.5673 (N06339) 513.5E-09 (N06345)     .1350     

(N06351)    2.4994 (N06499)     .2272 (N06665)    2.5000 (DAC_OUT)     .2700    

(X_U3.10)    5.5000                   (X_U3.11)    5.3275                       

(X_U3.12)    5.3275                   (X_U3.13)    5.3000                       

(X_U3.14)    2.4994                   (X_U3.15)    2.1543                       

(X_U3.16)    -.3000                   (X_U3.20)     .5137                       

(X_U3.21)    -.5137                   (X_U3.26)-135.0E-06                       

(X_U3.27)-241.5E-06                   (X_U3.30)     .0022                       

(X_U3.31)  111.2500                   (X_U3.32) -130.2000                       

(X_U3.33)     .0022                   (X_U3.34)     .9391                       

(X_U3.35)     .9391                   (X_U3.37)     .9391                       

(X_U3.38)     .9391                   (X_U3.39)     .9391                       

(X_U3.50)     .0023                   (X_U3.51)     .0023                       

(X_U3.52) 229.7E-12                   (X_U3.55)    4.9992                       

(X_U3.56)     .0012                   (X_U3.57)    3.5673                       

(X_U3.61) 109.5E-06                   (X_U3.62) 58.20E-12                       

(X_U3.70) 1.000E-06                   (X_U3.71)    2.5000                       

(X_U3.96)    3.5673                   (X_U3.98) 1.079E-06                       

(X_U3.99) 2.272E-06                   




    VOLTAGE SOURCE CURRENTS
    NAME         CURRENT

    V_V4        -6.378E-04
    V_V5         0.000E+00
    V_V6        -1.350E-05
    X_U3.V10     5.000E-05
    X_U3.V16     2.828E-12
    X_U3.V13     2.829E-12

    TOTAL POWER DISSIPATION   3.22E-03  WATTS


**** 02/20/20 22:53:27 ******* PSpice 17.4.0 (Nov 2018) ******* ID# 0 ********

 ** Profile: "SCHEMATIC1-test"  [ C:\Users\Heol\Documents\ProjetPluri\minimood\Hardware\VCF_Orcad_simulation\vcf-pspicefiles\schemati


 ****     SMALL SIGNAL BIAS SOLUTION       TEMPERATURE =   27.000 DEG C

 ****     CURRENT STEP                     PARAM K =     .3   


******************************************************************************



 NODE   VOLTAGE     NODE   VOLTAGE     NODE   VOLTAGE     NODE   VOLTAGE


(   IN)    1.5000  (  OUT)    0.0000  (  VCC)    5.0000  (N06157)    3.5673     

(N06219)     .0212 (N06231)    3.5673 (N06339) 515.0E-09 (N06345)     .1500     

(N06351)    2.4994 (N06499)     .2272 (N06665)    2.5000 (DAC_OUT)     .3000    

(X_U3.10)    5.5000                   (X_U3.11)    5.3275                       

(X_U3.12)    5.3275                   (X_U3.13)    5.3000                       

(X_U3.14)    2.4994                   (X_U3.15)    2.1543                       

(X_U3.16)    -.3000                   (X_U3.20)     .5137                       

(X_U3.21)    -.5137                   (X_U3.26)-135.0E-06                       

(X_U3.27)-241.5E-06                   (X_U3.30)     .0022                       

(X_U3.31)  111.2500                   (X_U3.32) -130.2000                       

(X_U3.33)     .0022                   (X_U3.34)     .9391                       

(X_U3.35)     .9391                   (X_U3.37)     .9391                       

(X_U3.38)     .9391                   (X_U3.39)     .9391                       

(X_U3.50)     .0023                   (X_U3.51)     .0023                       

(X_U3.52) 229.7E-12                   (X_U3.55)    4.9992                       

(X_U3.56)     .0012                   (X_U3.57)    3.5673                       

(X_U3.61) 109.5E-06                   (X_U3.62) 58.20E-12                       

(X_U3.70) 1.000E-06                   (X_U3.71)    2.5000                       

(X_U3.96)    3.5673                   (X_U3.98) 1.079E-06                       

(X_U3.99) 2.272E-06                   




    VOLTAGE SOURCE CURRENTS
    NAME         CURRENT

    V_V4        -6.378E-04
    V_V5         0.000E+00
    V_V6        -1.500E-05
    X_U3.V10     5.000E-05
    X_U3.V16     2.828E-12
    X_U3.V13     2.829E-12

    TOTAL POWER DISSIPATION   3.22E-03  WATTS


**** 02/20/20 22:53:27 ******* PSpice 17.4.0 (Nov 2018) ******* ID# 0 ********

 ** Profile: "SCHEMATIC1-test"  [ C:\Users\Heol\Documents\ProjetPluri\minimood\Hardware\VCF_Orcad_simulation\vcf-pspicefiles\schemati


 ****     SMALL SIGNAL BIAS SOLUTION       TEMPERATURE =   27.000 DEG C

 ****     CURRENT STEP                     PARAM K =     .33  


******************************************************************************



 NODE   VOLTAGE     NODE   VOLTAGE     NODE   VOLTAGE     NODE   VOLTAGE


(   IN)    1.5000  (  OUT)    0.0000  (  VCC)    5.0000  (N06157)    3.5673     

(N06219)     .0203 (N06231)    3.5673 (N06339) 516.5E-09 (N06345)     .1650     

(N06351)    2.4994 (N06499)     .2272 (N06665)    2.5000 (DAC_OUT)     .3300    

(X_U3.10)    5.5000                   (X_U3.11)    5.3275                       

(X_U3.12)    5.3275                   (X_U3.13)    5.3000                       

(X_U3.14)    2.4994                   (X_U3.15)    2.1543                       

(X_U3.16)    -.3000                   (X_U3.20)     .5137                       

(X_U3.21)    -.5137                   (X_U3.26)-135.0E-06                       

(X_U3.27)-241.5E-06                   (X_U3.30)     .0022                       

(X_U3.31)  111.2500                   (X_U3.32) -130.2000                       

(X_U3.33)     .0022                   (X_U3.34)     .9391                       

(X_U3.35)     .9391                   (X_U3.37)     .9391                       

(X_U3.38)     .9391                   (X_U3.39)     .9391                       

(X_U3.50)     .0023                   (X_U3.51)     .0023                       

(X_U3.52) 229.7E-12                   (X_U3.55)    4.9992                       

(X_U3.56)     .0012                   (X_U3.57)    3.5673                       

(X_U3.61) 109.5E-06                   (X_U3.62) 58.20E-12                       

(X_U3.70) 1.000E-06                   (X_U3.71)    2.5000                       

(X_U3.96)    3.5673                   (X_U3.98) 1.079E-06                       

(X_U3.99) 2.272E-06                   




    VOLTAGE SOURCE CURRENTS
    NAME         CURRENT

    V_V4        -6.378E-04
    V_V5         0.000E+00
    V_V6        -1.650E-05
    X_U3.V10     5.000E-05
    X_U3.V16     2.828E-12
    X_U3.V13     2.829E-12

    TOTAL POWER DISSIPATION   3.22E-03  WATTS


**** 02/20/20 22:53:27 ******* PSpice 17.4.0 (Nov 2018) ******* ID# 0 ********

 ** Profile: "SCHEMATIC1-test"  [ C:\Users\Heol\Documents\ProjetPluri\minimood\Hardware\VCF_Orcad_simulation\vcf-pspicefiles\schemati


 ****     SMALL SIGNAL BIAS SOLUTION       TEMPERATURE =   27.000 DEG C

 ****     CURRENT STEP                     PARAM K =     .36  


******************************************************************************



 NODE   VOLTAGE     NODE   VOLTAGE     NODE   VOLTAGE     NODE   VOLTAGE


(   IN)    1.5000  (  OUT)    0.0000  (  VCC)    5.0000  (N06157)    3.5673     

(N06219)     .0197 (N06231)    3.5673 (N06339) 518.0E-09 (N06345)     .1800     

(N06351)    2.4994 (N06499)     .2272 (N06665)    2.5000 (DAC_OUT)     .3600    

(X_U3.10)    5.5000                   (X_U3.11)    5.3275                       

(X_U3.12)    5.3275                   (X_U3.13)    5.3000                       

(X_U3.14)    2.4994                   (X_U3.15)    2.1543                       

(X_U3.16)    -.3000                   (X_U3.20)     .5137                       

(X_U3.21)    -.5137                   (X_U3.26)-135.0E-06                       

(X_U3.27)-241.5E-06                   (X_U3.30)     .0022                       

(X_U3.31)  111.2500                   (X_U3.32) -130.2000                       

(X_U3.33)     .0022                   (X_U3.34)     .9391                       

(X_U3.35)     .9391                   (X_U3.37)     .9391                       

(X_U3.38)     .9391                   (X_U3.39)     .9391                       

(X_U3.50)     .0023                   (X_U3.51)     .0023                       

(X_U3.52) 229.7E-12                   (X_U3.55)    4.9992                       

(X_U3.56)     .0012                   (X_U3.57)    3.5673                       

(X_U3.61) 109.5E-06                   (X_U3.62) 58.20E-12                       

(X_U3.70) 1.000E-06                   (X_U3.71)    2.5000                       

(X_U3.96)    3.5673                   (X_U3.98) 1.079E-06                       

(X_U3.99) 2.272E-06                   




    VOLTAGE SOURCE CURRENTS
    NAME         CURRENT

    V_V4        -6.378E-04
    V_V5         0.000E+00
    V_V6        -1.800E-05
    X_U3.V10     5.000E-05
    X_U3.V16     2.828E-12
    X_U3.V13     2.829E-12

    TOTAL POWER DISSIPATION   3.22E-03  WATTS


**** 02/20/20 22:53:27 ******* PSpice 17.4.0 (Nov 2018) ******* ID# 0 ********

 ** Profile: "SCHEMATIC1-test"  [ C:\Users\Heol\Documents\ProjetPluri\minimood\Hardware\VCF_Orcad_simulation\vcf-pspicefiles\schemati


 ****     SMALL SIGNAL BIAS SOLUTION       TEMPERATURE =   27.000 DEG C

 ****     CURRENT STEP                     PARAM K =     .39  


******************************************************************************



 NODE   VOLTAGE     NODE   VOLTAGE     NODE   VOLTAGE     NODE   VOLTAGE


(   IN)    1.5000  (  OUT)    0.0000  (  VCC)    5.0000  (N06157)    3.5673     

(N06219)     .0192 (N06231)    3.5673 (N06339) 519.5E-09 (N06345)     .1950     

(N06351)    2.4994 (N06499)     .2272 (N06665)    2.5000 (DAC_OUT)     .3900    

(X_U3.10)    5.5000                   (X_U3.11)    5.3275                       

(X_U3.12)    5.3275                   (X_U3.13)    5.3000                       

(X_U3.14)    2.4994                   (X_U3.15)    2.1543                       

(X_U3.16)    -.3000                   (X_U3.20)     .5137                       

(X_U3.21)    -.5137                   (X_U3.26)-135.0E-06                       

(X_U3.27)-241.5E-06                   (X_U3.30)     .0022                       

(X_U3.31)  111.2500                   (X_U3.32) -130.2000                       

(X_U3.33)     .0022                   (X_U3.34)     .9391                       

(X_U3.35)     .9391                   (X_U3.37)     .9391                       

(X_U3.38)     .9391                   (X_U3.39)     .9391                       

(X_U3.50)     .0023                   (X_U3.51)     .0023                       

(X_U3.52) 229.7E-12                   (X_U3.55)    4.9992                       

(X_U3.56)     .0012                   (X_U3.57)    3.5673                       

(X_U3.61) 109.5E-06                   (X_U3.62) 58.20E-12                       

(X_U3.70) 1.000E-06                   (X_U3.71)    2.5000                       

(X_U3.96)    3.5673                   (X_U3.98) 1.079E-06                       

(X_U3.99) 2.272E-06                   




    VOLTAGE SOURCE CURRENTS
    NAME         CURRENT

    V_V4        -6.378E-04
    V_V5         0.000E+00
    V_V6        -1.950E-05
    X_U3.V10     5.000E-05
    X_U3.V16     2.828E-12
    X_U3.V13     2.829E-12

    TOTAL POWER DISSIPATION   3.22E-03  WATTS


**** 02/20/20 22:53:27 ******* PSpice 17.4.0 (Nov 2018) ******* ID# 0 ********

 ** Profile: "SCHEMATIC1-test"  [ C:\Users\Heol\Documents\ProjetPluri\minimood\Hardware\VCF_Orcad_simulation\vcf-pspicefiles\schemati


 ****     SMALL SIGNAL BIAS SOLUTION       TEMPERATURE =   27.000 DEG C

 ****     CURRENT STEP                     PARAM K =     .42  


******************************************************************************



 NODE   VOLTAGE     NODE   VOLTAGE     NODE   VOLTAGE     NODE   VOLTAGE


(   IN)    1.5000  (  OUT)    0.0000  (  VCC)    5.0000  (N06157)    3.5673     

(N06219)     .0189 (N06231)    3.5673 (N06339) 521.0E-09 (N06345)     .2100     

(N06351)    2.4994 (N06499)     .2272 (N06665)    2.5000 (DAC_OUT)     .4200    

(X_U3.10)    5.5000                   (X_U3.11)    5.3275                       

(X_U3.12)    5.3275                   (X_U3.13)    5.3000                       

(X_U3.14)    2.4994                   (X_U3.15)    2.1543                       

(X_U3.16)    -.3000                   (X_U3.20)     .5137                       

(X_U3.21)    -.5137                   (X_U3.26)-135.0E-06                       

(X_U3.27)-241.5E-06                   (X_U3.30)     .0022                       

(X_U3.31)  111.2500                   (X_U3.32) -130.2000                       

(X_U3.33)     .0022                   (X_U3.34)     .9391                       

(X_U3.35)     .9391                   (X_U3.37)     .9391                       

(X_U3.38)     .9391                   (X_U3.39)     .9391                       

(X_U3.50)     .0023                   (X_U3.51)     .0023                       

(X_U3.52) 229.7E-12                   (X_U3.55)    4.9992                       

(X_U3.56)     .0012                   (X_U3.57)    3.5673                       

(X_U3.61) 109.5E-06                   (X_U3.62) 58.20E-12                       

(X_U3.70) 1.000E-06                   (X_U3.71)    2.5000                       

(X_U3.96)    3.5673                   (X_U3.98) 1.079E-06                       

(X_U3.99) 2.272E-06                   




    VOLTAGE SOURCE CURRENTS
    NAME         CURRENT

    V_V4        -6.378E-04
    V_V5         0.000E+00
    V_V6        -2.100E-05
    X_U3.V10     5.000E-05
    X_U3.V16     2.828E-12
    X_U3.V13     2.829E-12

    TOTAL POWER DISSIPATION   3.22E-03  WATTS


**** 02/20/20 22:53:27 ******* PSpice 17.4.0 (Nov 2018) ******* ID# 0 ********

 ** Profile: "SCHEMATIC1-test"  [ C:\Users\Heol\Documents\ProjetPluri\minimood\Hardware\VCF_Orcad_simulation\vcf-pspicefiles\schemati


 ****     SMALL SIGNAL BIAS SOLUTION       TEMPERATURE =   27.000 DEG C

 ****     CURRENT STEP                     PARAM K =     .45  


******************************************************************************



 NODE   VOLTAGE     NODE   VOLTAGE     NODE   VOLTAGE     NODE   VOLTAGE


(   IN)    1.5000  (  OUT)    0.0000  (  VCC)    5.0000  (N06157)    3.5673     

(N06219)     .0187 (N06231)    3.5673 (N06339) 522.5E-09 (N06345)     .2250     

(N06351)    2.4994 (N06499)     .2272 (N06665)    2.5000 (DAC_OUT)     .4500    

(X_U3.10)    5.5000                   (X_U3.11)    5.3275                       

(X_U3.12)    5.3275                   (X_U3.13)    5.3000                       

(X_U3.14)    2.4994                   (X_U3.15)    2.1543                       

(X_U3.16)    -.3000                   (X_U3.20)     .5137                       

(X_U3.21)    -.5137                   (X_U3.26)-135.0E-06                       

(X_U3.27)-241.5E-06                   (X_U3.30)     .0022                       

(X_U3.31)  111.2500                   (X_U3.32) -130.2000                       

(X_U3.33)     .0022                   (X_U3.34)     .9391                       

(X_U3.35)     .9391                   (X_U3.37)     .9391                       

(X_U3.38)     .9391                   (X_U3.39)     .9391                       

(X_U3.50)     .0023                   (X_U3.51)     .0023                       

(X_U3.52) 229.7E-12                   (X_U3.55)    4.9992                       

(X_U3.56)     .0012                   (X_U3.57)    3.5673                       

(X_U3.61) 109.5E-06                   (X_U3.62) 58.20E-12                       

(X_U3.70) 1.000E-06                   (X_U3.71)    2.5000                       

(X_U3.96)    3.5673                   (X_U3.98) 1.079E-06                       

(X_U3.99) 2.272E-06                   




    VOLTAGE SOURCE CURRENTS
    NAME         CURRENT

    V_V4        -6.378E-04
    V_V5         0.000E+00
    V_V6        -2.250E-05
    X_U3.V10     5.000E-05
    X_U3.V16     2.828E-12
    X_U3.V13     2.829E-12

    TOTAL POWER DISSIPATION   3.22E-03  WATTS


**** 02/20/20 22:53:27 ******* PSpice 17.4.0 (Nov 2018) ******* ID# 0 ********

 ** Profile: "SCHEMATIC1-test"  [ C:\Users\Heol\Documents\ProjetPluri\minimood\Hardware\VCF_Orcad_simulation\vcf-pspicefiles\schemati


 ****     SMALL SIGNAL BIAS SOLUTION       TEMPERATURE =   27.000 DEG C

 ****     CURRENT STEP                     PARAM K =     .48  


******************************************************************************



 NODE   VOLTAGE     NODE   VOLTAGE     NODE   VOLTAGE     NODE   VOLTAGE


(   IN)    1.5000  (  OUT)    0.0000  (  VCC)    5.0000  (N06157)    3.5673     

(N06219)     .0185 (N06231)    3.5673 (N06339) 524.0E-09 (N06345)     .2400     

(N06351)    2.4994 (N06499)     .2272 (N06665)    2.5000 (DAC_OUT)     .4800    

(X_U3.10)    5.5000                   (X_U3.11)    5.3275                       

(X_U3.12)    5.3275                   (X_U3.13)    5.3000                       

(X_U3.14)    2.4994                   (X_U3.15)    2.1543                       

(X_U3.16)    -.3000                   (X_U3.20)     .5137                       

(X_U3.21)    -.5137                   (X_U3.26)-135.0E-06                       

(X_U3.27)-241.5E-06                   (X_U3.30)     .0022                       

(X_U3.31)  111.2500                   (X_U3.32) -130.2000                       

(X_U3.33)     .0022                   (X_U3.34)     .9391                       

(X_U3.35)     .9391                   (X_U3.37)     .9391                       

(X_U3.38)     .9391                   (X_U3.39)     .9391                       

(X_U3.50)     .0023                   (X_U3.51)     .0023                       

(X_U3.52) 229.7E-12                   (X_U3.55)    4.9992                       

(X_U3.56)     .0012                   (X_U3.57)    3.5673                       

(X_U3.61) 109.5E-06                   (X_U3.62) 58.20E-12                       

(X_U3.70) 1.000E-06                   (X_U3.71)    2.5000                       

(X_U3.96)    3.5673                   (X_U3.98) 1.079E-06                       

(X_U3.99) 2.272E-06                   




    VOLTAGE SOURCE CURRENTS
    NAME         CURRENT

    V_V4        -6.378E-04
    V_V5         0.000E+00
    V_V6        -2.400E-05
    X_U3.V10     5.000E-05
    X_U3.V16     2.828E-12
    X_U3.V13     2.829E-12

    TOTAL POWER DISSIPATION   3.23E-03  WATTS


**** 02/20/20 22:53:27 ******* PSpice 17.4.0 (Nov 2018) ******* ID# 0 ********

 ** Profile: "SCHEMATIC1-test"  [ C:\Users\Heol\Documents\ProjetPluri\minimood\Hardware\VCF_Orcad_simulation\vcf-pspicefiles\schemati


 ****     SMALL SIGNAL BIAS SOLUTION       TEMPERATURE =   27.000 DEG C

 ****     CURRENT STEP                     PARAM K =     .51  


******************************************************************************



 NODE   VOLTAGE     NODE   VOLTAGE     NODE   VOLTAGE     NODE   VOLTAGE


(   IN)    1.5000  (  OUT)    0.0000  (  VCC)    5.0000  (N06157)    3.5673     

(N06219)     .0184 (N06231)    3.5673 (N06339) 525.5E-09 (N06345)     .2550     

(N06351)    2.4994 (N06499)     .2272 (N06665)    2.5000 (DAC_OUT)     .5100    

(X_U3.10)    5.5000                   (X_U3.11)    5.3275                       

(X_U3.12)    5.3275                   (X_U3.13)    5.3000                       

(X_U3.14)    2.4994                   (X_U3.15)    2.1543                       

(X_U3.16)    -.3000                   (X_U3.20)     .5137                       

(X_U3.21)    -.5137                   (X_U3.26)-135.0E-06                       

(X_U3.27)-241.5E-06                   (X_U3.30)     .0022                       

(X_U3.31)  111.2500                   (X_U3.32) -130.2000                       

(X_U3.33)     .0022                   (X_U3.34)     .9391                       

(X_U3.35)     .9391                   (X_U3.37)     .9391                       

(X_U3.38)     .9391                   (X_U3.39)     .9391                       

(X_U3.50)     .0023                   (X_U3.51)     .0023                       

(X_U3.52) 229.7E-12                   (X_U3.55)    4.9992                       

(X_U3.56)     .0012                   (X_U3.57)    3.5673                       

(X_U3.61) 109.5E-06                   (X_U3.62) 58.20E-12                       

(X_U3.70) 1.000E-06                   (X_U3.71)    2.5000                       

(X_U3.96)    3.5673                   (X_U3.98) 1.079E-06                       

(X_U3.99) 2.272E-06                   




    VOLTAGE SOURCE CURRENTS
    NAME         CURRENT

    V_V4        -6.378E-04
    V_V5         0.000E+00
    V_V6        -2.550E-05
    X_U3.V10     5.000E-05
    X_U3.V16     2.828E-12
    X_U3.V13     2.829E-12

    TOTAL POWER DISSIPATION   3.23E-03  WATTS


**** 02/20/20 22:53:27 ******* PSpice 17.4.0 (Nov 2018) ******* ID# 0 ********

 ** Profile: "SCHEMATIC1-test"  [ C:\Users\Heol\Documents\ProjetPluri\minimood\Hardware\VCF_Orcad_simulation\vcf-pspicefiles\schemati


 ****     SMALL SIGNAL BIAS SOLUTION       TEMPERATURE =   27.000 DEG C

 ****     CURRENT STEP                     PARAM K =     .54  


******************************************************************************



 NODE   VOLTAGE     NODE   VOLTAGE     NODE   VOLTAGE     NODE   VOLTAGE


(   IN)    1.5000  (  OUT)    0.0000  (  VCC)    5.0000  (N06157)    3.5673     

(N06219)     .0183 (N06231)    3.5673 (N06339) 527.0E-09 (N06345)     .2700     

(N06351)    2.4994 (N06499)     .2272 (N06665)    2.5000 (DAC_OUT)     .5400    

(X_U3.10)    5.5000                   (X_U3.11)    5.3275                       

(X_U3.12)    5.3275                   (X_U3.13)    5.3000                       

(X_U3.14)    2.4994                   (X_U3.15)    2.1543                       

(X_U3.16)    -.3000                   (X_U3.20)     .5137                       

(X_U3.21)    -.5137                   (X_U3.26)-135.0E-06                       

(X_U3.27)-241.5E-06                   (X_U3.30)     .0022                       

(X_U3.31)  111.2500                   (X_U3.32) -130.2000                       

(X_U3.33)     .0022                   (X_U3.34)     .9391                       

(X_U3.35)     .9391                   (X_U3.37)     .9391                       

(X_U3.38)     .9391                   (X_U3.39)     .9391                       

(X_U3.50)     .0023                   (X_U3.51)     .0023                       

(X_U3.52) 229.7E-12                   (X_U3.55)    4.9992                       

(X_U3.56)     .0012                   (X_U3.57)    3.5673                       

(X_U3.61) 109.5E-06                   (X_U3.62) 58.20E-12                       

(X_U3.70) 1.000E-06                   (X_U3.71)    2.5000                       

(X_U3.96)    3.5673                   (X_U3.98) 1.079E-06                       

(X_U3.99) 2.272E-06                   




    VOLTAGE SOURCE CURRENTS
    NAME         CURRENT

    V_V4        -6.378E-04
    V_V5         0.000E+00
    V_V6        -2.700E-05
    X_U3.V10     5.000E-05
    X_U3.V16     2.828E-12
    X_U3.V13     2.829E-12

    TOTAL POWER DISSIPATION   3.23E-03  WATTS


**** 02/20/20 22:53:27 ******* PSpice 17.4.0 (Nov 2018) ******* ID# 0 ********

 ** Profile: "SCHEMATIC1-test"  [ C:\Users\Heol\Documents\ProjetPluri\minimood\Hardware\VCF_Orcad_simulation\vcf-pspicefiles\schemati


 ****     SMALL SIGNAL BIAS SOLUTION       TEMPERATURE =   27.000 DEG C

 ****     CURRENT STEP                     PARAM K =     .57  


******************************************************************************



 NODE   VOLTAGE     NODE   VOLTAGE     NODE   VOLTAGE     NODE   VOLTAGE


(   IN)    1.5000  (  OUT)    0.0000  (  VCC)    5.0000  (N06157)    3.5673     

(N06219)     .0182 (N06231)    3.5673 (N06339) 528.5E-09 (N06345)     .2850     

(N06351)    2.4994 (N06499)     .2272 (N06665)    2.5000 (DAC_OUT)     .5700    

(X_U3.10)    5.5000                   (X_U3.11)    5.3275                       

(X_U3.12)    5.3275                   (X_U3.13)    5.3000                       

(X_U3.14)    2.4994                   (X_U3.15)    2.1543                       

(X_U3.16)    -.3000                   (X_U3.20)     .5137                       

(X_U3.21)    -.5137                   (X_U3.26)-135.0E-06                       

(X_U3.27)-241.5E-06                   (X_U3.30)     .0022                       

(X_U3.31)  111.2500                   (X_U3.32) -130.2000                       

(X_U3.33)     .0022                   (X_U3.34)     .9391                       

(X_U3.35)     .9391                   (X_U3.37)     .9391                       

(X_U3.38)     .9391                   (X_U3.39)     .9391                       

(X_U3.50)     .0023                   (X_U3.51)     .0023                       

(X_U3.52) 229.7E-12                   (X_U3.55)    4.9992                       

(X_U3.56)     .0012                   (X_U3.57)    3.5673                       

(X_U3.61) 109.5E-06                   (X_U3.62) 58.20E-12                       

(X_U3.70) 1.000E-06                   (X_U3.71)    2.5000                       

(X_U3.96)    3.5673                   (X_U3.98) 1.079E-06                       

(X_U3.99) 2.272E-06                   




    VOLTAGE SOURCE CURRENTS
    NAME         CURRENT

    V_V4        -6.378E-04
    V_V5         0.000E+00
    V_V6        -2.850E-05
    X_U3.V10     5.000E-05
    X_U3.V16     2.828E-12
    X_U3.V13     2.829E-12

    TOTAL POWER DISSIPATION   3.23E-03  WATTS


**** 02/20/20 22:53:27 ******* PSpice 17.4.0 (Nov 2018) ******* ID# 0 ********

 ** Profile: "SCHEMATIC1-test"  [ C:\Users\Heol\Documents\ProjetPluri\minimood\Hardware\VCF_Orcad_simulation\vcf-pspicefiles\schemati


 ****     SMALL SIGNAL BIAS SOLUTION       TEMPERATURE =   27.000 DEG C

 ****     CURRENT STEP                     PARAM K =     .6   


******************************************************************************



 NODE   VOLTAGE     NODE   VOLTAGE     NODE   VOLTAGE     NODE   VOLTAGE


(   IN)    1.5000  (  OUT)    0.0000  (  VCC)    5.0000  (N06157)    3.5673     

(N06219)     .0182 (N06231)    3.5673 (N06339) 530.0E-09 (N06345)     .3000     

(N06351)    2.4994 (N06499)     .2272 (N06665)    2.5000 (DAC_OUT)     .6000    

(X_U3.10)    5.5000                   (X_U3.11)    5.3275                       

(X_U3.12)    5.3275                   (X_U3.13)    5.3000                       

(X_U3.14)    2.4994                   (X_U3.15)    2.1543                       

(X_U3.16)    -.3000                   (X_U3.20)     .5137                       

(X_U3.21)    -.5137                   (X_U3.26)-135.0E-06                       

(X_U3.27)-241.5E-06                   (X_U3.30)     .0022                       

(X_U3.31)  111.2500                   (X_U3.32) -130.2000                       

(X_U3.33)     .0022                   (X_U3.34)     .9391                       

(X_U3.35)     .9391                   (X_U3.37)     .9391                       

(X_U3.38)     .9391                   (X_U3.39)     .9391                       

(X_U3.50)     .0023                   (X_U3.51)     .0023                       

(X_U3.52) 229.7E-12                   (X_U3.55)    4.9992                       

(X_U3.56)     .0012                   (X_U3.57)    3.5673                       

(X_U3.61) 109.5E-06                   (X_U3.62) 58.20E-12                       

(X_U3.70) 1.000E-06                   (X_U3.71)    2.5000                       

(X_U3.96)    3.5673                   (X_U3.98) 1.079E-06                       

(X_U3.99) 2.272E-06                   




    VOLTAGE SOURCE CURRENTS
    NAME         CURRENT

    V_V4        -6.378E-04
    V_V5         0.000E+00
    V_V6        -3.000E-05
    X_U3.V10     5.000E-05
    X_U3.V16     2.828E-12
    X_U3.V13     2.829E-12

    TOTAL POWER DISSIPATION   3.23E-03  WATTS


**** 02/20/20 22:53:27 ******* PSpice 17.4.0 (Nov 2018) ******* ID# 0 ********

 ** Profile: "SCHEMATIC1-test"  [ C:\Users\Heol\Documents\ProjetPluri\minimood\Hardware\VCF_Orcad_simulation\vcf-pspicefiles\schemati


 ****     SMALL SIGNAL BIAS SOLUTION       TEMPERATURE =   27.000 DEG C

 ****     CURRENT STEP                     PARAM K =     .63  


******************************************************************************



 NODE   VOLTAGE     NODE   VOLTAGE     NODE   VOLTAGE     NODE   VOLTAGE


(   IN)    1.5000  (  OUT)    0.0000  (  VCC)    5.0000  (N06157)    3.5673     

(N06219)     .0181 (N06231)    3.5673 (N06339) 531.5E-09 (N06345)     .3150     

(N06351)    2.4994 (N06499)     .2272 (N06665)    2.5000 (DAC_OUT)     .6300    

(X_U3.10)    5.5000                   (X_U3.11)    5.3275                       

(X_U3.12)    5.3275                   (X_U3.13)    5.3000                       

(X_U3.14)    2.4994                   (X_U3.15)    2.1543                       

(X_U3.16)    -.3000                   (X_U3.20)     .5137                       

(X_U3.21)    -.5137                   (X_U3.26)-135.0E-06                       

(X_U3.27)-241.5E-06                   (X_U3.30)     .0022                       

(X_U3.31)  111.2500                   (X_U3.32) -130.2000                       

(X_U3.33)     .0022                   (X_U3.34)     .9391                       

(X_U3.35)     .9391                   (X_U3.37)     .9391                       

(X_U3.38)     .9391                   (X_U3.39)     .9391                       

(X_U3.50)     .0023                   (X_U3.51)     .0023                       

(X_U3.52) 229.7E-12                   (X_U3.55)    4.9992                       

(X_U3.56)     .0012                   (X_U3.57)    3.5673                       

(X_U3.61) 109.5E-06                   (X_U3.62) 58.20E-12                       

(X_U3.70) 1.000E-06                   (X_U3.71)    2.5000                       

(X_U3.96)    3.5673                   (X_U3.98) 1.079E-06                       

(X_U3.99) 2.272E-06                   




    VOLTAGE SOURCE CURRENTS
    NAME         CURRENT

    V_V4        -6.378E-04
    V_V5         0.000E+00
    V_V6        -3.150E-05
    X_U3.V10     5.000E-05
    X_U3.V16     2.828E-12
    X_U3.V13     2.829E-12

    TOTAL POWER DISSIPATION   3.23E-03  WATTS


**** 02/20/20 22:53:27 ******* PSpice 17.4.0 (Nov 2018) ******* ID# 0 ********

 ** Profile: "SCHEMATIC1-test"  [ C:\Users\Heol\Documents\ProjetPluri\minimood\Hardware\VCF_Orcad_simulation\vcf-pspicefiles\schemati


 ****     SMALL SIGNAL BIAS SOLUTION       TEMPERATURE =   27.000 DEG C

 ****     CURRENT STEP                     PARAM K =     .66  


******************************************************************************



 NODE   VOLTAGE     NODE   VOLTAGE     NODE   VOLTAGE     NODE   VOLTAGE


(   IN)    1.5000  (  OUT)    0.0000  (  VCC)    5.0000  (N06157)    3.5673     

(N06219)     .0181 (N06231)    3.5673 (N06339) 533.0E-09 (N06345)     .3300     

(N06351)    2.4994 (N06499)     .2272 (N06665)    2.5000 (DAC_OUT)     .6600    

(X_U3.10)    5.5000                   (X_U3.11)    5.3275                       

(X_U3.12)    5.3275                   (X_U3.13)    5.3000                       

(X_U3.14)    2.4994                   (X_U3.15)    2.1543                       

(X_U3.16)    -.3000                   (X_U3.20)     .5137                       

(X_U3.21)    -.5137                   (X_U3.26)-135.0E-06                       

(X_U3.27)-241.5E-06                   (X_U3.30)     .0022                       

(X_U3.31)  111.2500                   (X_U3.32) -130.2000                       

(X_U3.33)     .0022                   (X_U3.34)     .9391                       

(X_U3.35)     .9391                   (X_U3.37)     .9391                       

(X_U3.38)     .9391                   (X_U3.39)     .9391                       

(X_U3.50)     .0023                   (X_U3.51)     .0023                       

(X_U3.52) 229.7E-12                   (X_U3.55)    4.9992                       

(X_U3.56)     .0012                   (X_U3.57)    3.5673                       

(X_U3.61) 109.5E-06                   (X_U3.62) 58.20E-12                       

(X_U3.70) 1.000E-06                   (X_U3.71)    2.5000                       

(X_U3.96)    3.5673                   (X_U3.98) 1.079E-06                       

(X_U3.99) 2.272E-06                   




    VOLTAGE SOURCE CURRENTS
    NAME         CURRENT

    V_V4        -6.378E-04
    V_V5         0.000E+00
    V_V6        -3.300E-05
    X_U3.V10     5.000E-05
    X_U3.V16     2.828E-12
    X_U3.V13     2.829E-12

    TOTAL POWER DISSIPATION   3.24E-03  WATTS


**** 02/20/20 22:53:27 ******* PSpice 17.4.0 (Nov 2018) ******* ID# 0 ********

 ** Profile: "SCHEMATIC1-test"  [ C:\Users\Heol\Documents\ProjetPluri\minimood\Hardware\VCF_Orcad_simulation\vcf-pspicefiles\schemati


 ****     SMALL SIGNAL BIAS SOLUTION       TEMPERATURE =   27.000 DEG C

 ****     CURRENT STEP                     PARAM K =     .69  


******************************************************************************



 NODE   VOLTAGE     NODE   VOLTAGE     NODE   VOLTAGE     NODE   VOLTAGE


(   IN)    1.5000  (  OUT)    0.0000  (  VCC)    5.0000  (N06157)    3.5673     

(N06219)     .0181 (N06231)    3.5673 (N06339) 534.5E-09 (N06345)     .3450     

(N06351)    2.4994 (N06499)     .2272 (N06665)    2.5000 (DAC_OUT)     .6900    

(X_U3.10)    5.5000                   (X_U3.11)    5.3275                       

(X_U3.12)    5.3275                   (X_U3.13)    5.3000                       

(X_U3.14)    2.4994                   (X_U3.15)    2.1543                       

(X_U3.16)    -.3000                   (X_U3.20)     .5137                       

(X_U3.21)    -.5137                   (X_U3.26)-135.0E-06                       

(X_U3.27)-241.5E-06                   (X_U3.30)     .0022                       

(X_U3.31)  111.2500                   (X_U3.32) -130.2000                       

(X_U3.33)     .0022                   (X_U3.34)     .9391                       

(X_U3.35)     .9391                   (X_U3.37)     .9391                       

(X_U3.38)     .9391                   (X_U3.39)     .9391                       

(X_U3.50)     .0023                   (X_U3.51)     .0023                       

(X_U3.52) 229.7E-12                   (X_U3.55)    4.9992                       

(X_U3.56)     .0012                   (X_U3.57)    3.5673                       

(X_U3.61) 109.5E-06                   (X_U3.62) 58.20E-12                       

(X_U3.70) 1.000E-06                   (X_U3.71)    2.5000                       

(X_U3.96)    3.5673                   (X_U3.98) 1.079E-06                       

(X_U3.99) 2.272E-06                   




    VOLTAGE SOURCE CURRENTS
    NAME         CURRENT

    V_V4        -6.378E-04
    V_V5         0.000E+00
    V_V6        -3.450E-05
    X_U3.V10     5.000E-05
    X_U3.V16     2.828E-12
    X_U3.V13     2.829E-12

    TOTAL POWER DISSIPATION   3.24E-03  WATTS


**** 02/20/20 22:53:27 ******* PSpice 17.4.0 (Nov 2018) ******* ID# 0 ********

 ** Profile: "SCHEMATIC1-test"  [ C:\Users\Heol\Documents\ProjetPluri\minimood\Hardware\VCF_Orcad_simulation\vcf-pspicefiles\schemati


 ****     SMALL SIGNAL BIAS SOLUTION       TEMPERATURE =   27.000 DEG C

 ****     CURRENT STEP                     PARAM K =     .72  


******************************************************************************



 NODE   VOLTAGE     NODE   VOLTAGE     NODE   VOLTAGE     NODE   VOLTAGE


(   IN)    1.5000  (  OUT)    0.0000  (  VCC)    5.0000  (N06157)    3.5673     

(N06219)     .0181 (N06231)    3.5673 (N06339) 536.0E-09 (N06345)     .3600     

(N06351)    2.4994 (N06499)     .2272 (N06665)    2.5000 (DAC_OUT)     .7200    

(X_U3.10)    5.5000                   (X_U3.11)    5.3275                       

(X_U3.12)    5.3275                   (X_U3.13)    5.3000                       

(X_U3.14)    2.4994                   (X_U3.15)    2.1543                       

(X_U3.16)    -.3000                   (X_U3.20)     .5137                       

(X_U3.21)    -.5137                   (X_U3.26)-135.0E-06                       

(X_U3.27)-241.5E-06                   (X_U3.30)     .0022                       

(X_U3.31)  111.2500                   (X_U3.32) -130.2000                       

(X_U3.33)     .0022                   (X_U3.34)     .9391                       

(X_U3.35)     .9391                   (X_U3.37)     .9391                       

(X_U3.38)     .9391                   (X_U3.39)     .9391                       

(X_U3.50)     .0023                   (X_U3.51)     .0023                       

(X_U3.52) 229.7E-12                   (X_U3.55)    4.9992                       

(X_U3.56)     .0012                   (X_U3.57)    3.5673                       

(X_U3.61) 109.5E-06                   (X_U3.62) 58.20E-12                       

(X_U3.70) 1.000E-06                   (X_U3.71)    2.5000                       

(X_U3.96)    3.5673                   (X_U3.98) 1.079E-06                       

(X_U3.99) 2.272E-06                   




    VOLTAGE SOURCE CURRENTS
    NAME         CURRENT

    V_V4        -6.378E-04
    V_V5         0.000E+00
    V_V6        -3.600E-05
    X_U3.V10     5.000E-05
    X_U3.V16     2.828E-12
    X_U3.V13     2.829E-12

    TOTAL POWER DISSIPATION   3.24E-03  WATTS


**** 02/20/20 22:53:27 ******* PSpice 17.4.0 (Nov 2018) ******* ID# 0 ********

 ** Profile: "SCHEMATIC1-test"  [ C:\Users\Heol\Documents\ProjetPluri\minimood\Hardware\VCF_Orcad_simulation\vcf-pspicefiles\schemati


 ****     SMALL SIGNAL BIAS SOLUTION       TEMPERATURE =   27.000 DEG C

 ****     CURRENT STEP                     PARAM K =     .75  


******************************************************************************



 NODE   VOLTAGE     NODE   VOLTAGE     NODE   VOLTAGE     NODE   VOLTAGE


(   IN)    1.5000  (  OUT)    0.0000  (  VCC)    5.0000  (N06157)    3.5673     

(N06219)     .0180 (N06231)    3.5673 (N06339) 537.5E-09 (N06345)     .3750     

(N06351)    2.4994 (N06499)     .2272 (N06665)    2.5000 (DAC_OUT)     .7500    

(X_U3.10)    5.5000                   (X_U3.11)    5.3275                       

(X_U3.12)    5.3275                   (X_U3.13)    5.3000                       

(X_U3.14)    2.4994                   (X_U3.15)    2.1543                       

(X_U3.16)    -.3000                   (X_U3.20)     .5137                       

(X_U3.21)    -.5137                   (X_U3.26)-135.0E-06                       

(X_U3.27)-241.5E-06                   (X_U3.30)     .0022                       

(X_U3.31)  111.2500                   (X_U3.32) -130.2000                       

(X_U3.33)     .0022                   (X_U3.34)     .9391                       

(X_U3.35)     .9391                   (X_U3.37)     .9391                       

(X_U3.38)     .9391                   (X_U3.39)     .9391                       

(X_U3.50)     .0023                   (X_U3.51)     .0023                       

(X_U3.52) 229.7E-12                   (X_U3.55)    4.9992                       

(X_U3.56)     .0012                   (X_U3.57)    3.5673                       

(X_U3.61) 109.5E-06                   (X_U3.62) 58.20E-12                       

(X_U3.70) 1.000E-06                   (X_U3.71)    2.5000                       

(X_U3.96)    3.5673                   (X_U3.98) 1.079E-06                       

(X_U3.99) 2.272E-06                   




    VOLTAGE SOURCE CURRENTS
    NAME         CURRENT

    V_V4        -6.378E-04
    V_V5         0.000E+00
    V_V6        -3.750E-05
    X_U3.V10     5.000E-05
    X_U3.V16     2.828E-12
    X_U3.V13     2.829E-12

    TOTAL POWER DISSIPATION   3.24E-03  WATTS


**** 02/20/20 22:53:27 ******* PSpice 17.4.0 (Nov 2018) ******* ID# 0 ********

 ** Profile: "SCHEMATIC1-test"  [ C:\Users\Heol\Documents\ProjetPluri\minimood\Hardware\VCF_Orcad_simulation\vcf-pspicefiles\schemati


 ****     SMALL SIGNAL BIAS SOLUTION       TEMPERATURE =   27.000 DEG C

 ****     CURRENT STEP                     PARAM K =     .78  


******************************************************************************



 NODE   VOLTAGE     NODE   VOLTAGE     NODE   VOLTAGE     NODE   VOLTAGE


(   IN)    1.5000  (  OUT)    0.0000  (  VCC)    5.0000  (N06157)    3.5673     

(N06219)     .0180 (N06231)    3.5673 (N06339) 539.0E-09 (N06345)     .3899     

(N06351)    2.4994 (N06499)     .2272 (N06665)    2.5000 (DAC_OUT)     .7800    

(X_U3.10)    5.5000                   (X_U3.11)    5.3275                       

(X_U3.12)    5.3275                   (X_U3.13)    5.3000                       

(X_U3.14)    2.4994                   (X_U3.15)    2.1543                       

(X_U3.16)    -.3000                   (X_U3.20)     .5137                       

(X_U3.21)    -.5137                   (X_U3.26)-135.0E-06                       

(X_U3.27)-241.5E-06                   (X_U3.30)     .0022                       

(X_U3.31)  111.2500                   (X_U3.32) -130.2000                       

(X_U3.33)     .0022                   (X_U3.34)     .9391                       

(X_U3.35)     .9391                   (X_U3.37)     .9391                       

(X_U3.38)     .9391                   (X_U3.39)     .9391                       

(X_U3.50)     .0023                   (X_U3.51)     .0023                       

(X_U3.52) 229.7E-12                   (X_U3.55)    4.9992                       

(X_U3.56)     .0012                   (X_U3.57)    3.5673                       

(X_U3.61) 109.5E-06                   (X_U3.62) 58.20E-12                       

(X_U3.70) 1.000E-06                   (X_U3.71)    2.5000                       

(X_U3.96)    3.5673                   (X_U3.98) 1.079E-06                       

(X_U3.99) 2.272E-06                   




    VOLTAGE SOURCE CURRENTS
    NAME         CURRENT

    V_V4        -6.378E-04
    V_V5         0.000E+00
    V_V6        -3.901E-05
    X_U3.V10     5.000E-05
    X_U3.V16     2.828E-12
    X_U3.V13     2.829E-12

    TOTAL POWER DISSIPATION   3.24E-03  WATTS


**** 02/20/20 22:53:27 ******* PSpice 17.4.0 (Nov 2018) ******* ID# 0 ********

 ** Profile: "SCHEMATIC1-test"  [ C:\Users\Heol\Documents\ProjetPluri\minimood\Hardware\VCF_Orcad_simulation\vcf-pspicefiles\schemati


 ****     SMALL SIGNAL BIAS SOLUTION       TEMPERATURE =   27.000 DEG C

 ****     CURRENT STEP                     PARAM K =     .81  


******************************************************************************



 NODE   VOLTAGE     NODE   VOLTAGE     NODE   VOLTAGE     NODE   VOLTAGE


(   IN)    1.5000  (  OUT)    0.0000  (  VCC)    5.0000  (N06157)    3.5673     

(N06219)     .0180 (N06231)    3.5673 (N06339) 540.5E-09 (N06345)     .4049     

(N06351)    2.4994 (N06499)     .2272 (N06665)    2.5000 (DAC_OUT)     .8100    

(X_U3.10)    5.5000                   (X_U3.11)    5.3275                       

(X_U3.12)    5.3275                   (X_U3.13)    5.3000                       

(X_U3.14)    2.4994                   (X_U3.15)    2.1543                       

(X_U3.16)    -.3000                   (X_U3.20)     .5137                       

(X_U3.21)    -.5137                   (X_U3.26)-135.0E-06                       

(X_U3.27)-241.5E-06                   (X_U3.30)     .0022                       

(X_U3.31)  111.2500                   (X_U3.32) -130.2000                       

(X_U3.33)     .0022                   (X_U3.34)     .9391                       

(X_U3.35)     .9391                   (X_U3.37)     .9391                       

(X_U3.38)     .9391                   (X_U3.39)     .9391                       

(X_U3.50)     .0023                   (X_U3.51)     .0023                       

(X_U3.52) 229.7E-12                   (X_U3.55)    4.9992                       

(X_U3.56)     .0012                   (X_U3.57)    3.5673                       

(X_U3.61) 109.5E-06                   (X_U3.62) 58.20E-12                       

(X_U3.70) 1.000E-06                   (X_U3.71)    2.5000                       

(X_U3.96)    3.5673                   (X_U3.98) 1.079E-06                       

(X_U3.99) 2.272E-06                   




    VOLTAGE SOURCE CURRENTS
    NAME         CURRENT

    V_V4        -6.378E-04
    V_V5         0.000E+00
    V_V6        -4.051E-05
    X_U3.V10     5.000E-05
    X_U3.V16     2.828E-12
    X_U3.V13     2.829E-12

    TOTAL POWER DISSIPATION   3.25E-03  WATTS


**** 02/20/20 22:53:27 ******* PSpice 17.4.0 (Nov 2018) ******* ID# 0 ********

 ** Profile: "SCHEMATIC1-test"  [ C:\Users\Heol\Documents\ProjetPluri\minimood\Hardware\VCF_Orcad_simulation\vcf-pspicefiles\schemati


 ****     SMALL SIGNAL BIAS SOLUTION       TEMPERATURE =   27.000 DEG C

 ****     CURRENT STEP                     PARAM K =     .84  


******************************************************************************



 NODE   VOLTAGE     NODE   VOLTAGE     NODE   VOLTAGE     NODE   VOLTAGE


(   IN)    1.5000  (  OUT)    0.0000  (  VCC)    5.0000  (N06157)    3.5673     

(N06219)     .0180 (N06231)    3.5673 (N06339) 542.0E-09 (N06345)     .4198     

(N06351)    2.4994 (N06499)     .2272 (N06665)    2.5000 (DAC_OUT)     .8400    

(X_U3.10)    5.5000                   (X_U3.11)    5.3275                       

(X_U3.12)    5.3275                   (X_U3.13)    5.3000                       

(X_U3.14)    2.4994                   (X_U3.15)    2.1543                       

(X_U3.16)    -.3000                   (X_U3.20)     .5137                       

(X_U3.21)    -.5137                   (X_U3.26)-135.0E-06                       

(X_U3.27)-241.5E-06                   (X_U3.30)     .0022                       

(X_U3.31)  111.2500                   (X_U3.32) -130.2000                       

(X_U3.33)     .0022                   (X_U3.34)     .9391                       

(X_U3.35)     .9391                   (X_U3.37)     .9391                       

(X_U3.38)     .9391                   (X_U3.39)     .9391                       

(X_U3.50)     .0023                   (X_U3.51)     .0023                       

(X_U3.52) 229.7E-12                   (X_U3.55)    4.9992                       

(X_U3.56)     .0012                   (X_U3.57)    3.5673                       

(X_U3.61) 109.5E-06                   (X_U3.62) 58.20E-12                       

(X_U3.70) 1.000E-06                   (X_U3.71)    2.5000                       

(X_U3.96)    3.5673                   (X_U3.98) 1.079E-06                       

(X_U3.99) 2.272E-06                   




    VOLTAGE SOURCE CURRENTS
    NAME         CURRENT

    V_V4        -6.378E-04
    V_V5         0.000E+00
    V_V6        -4.202E-05
    X_U3.V10     5.000E-05
    X_U3.V16     2.828E-12
    X_U3.V13     2.829E-12

    TOTAL POWER DISSIPATION   3.25E-03  WATTS


**** 02/20/20 22:53:27 ******* PSpice 17.4.0 (Nov 2018) ******* ID# 0 ********

 ** Profile: "SCHEMATIC1-test"  [ C:\Users\Heol\Documents\ProjetPluri\minimood\Hardware\VCF_Orcad_simulation\vcf-pspicefiles\schemati


 ****     SMALL SIGNAL BIAS SOLUTION       TEMPERATURE =   27.000 DEG C

 ****     CURRENT STEP                     PARAM K =     .87  


******************************************************************************



 NODE   VOLTAGE     NODE   VOLTAGE     NODE   VOLTAGE     NODE   VOLTAGE


(   IN)    1.5000  (  OUT)    0.0000  (  VCC)    5.0000  (N06157)    3.5673     

(N06219)     .0180 (N06231)    3.5673 (N06339) 543.5E-09 (N06345)     .4346     

(N06351)    2.4994 (N06499)     .2272 (N06665)    2.5000 (DAC_OUT)     .8700    

(X_U3.10)    5.5000                   (X_U3.11)    5.3275                       

(X_U3.12)    5.3275                   (X_U3.13)    5.3000                       

(X_U3.14)    2.4994                   (X_U3.15)    2.1543                       

(X_U3.16)    -.3000                   (X_U3.20)     .5137                       

(X_U3.21)    -.5137                   (X_U3.26)-135.0E-06                       

(X_U3.27)-241.5E-06                   (X_U3.30)     .0022                       

(X_U3.31)  111.2500                   (X_U3.32) -130.2000                       

(X_U3.33)     .0022                   (X_U3.34)     .9391                       

(X_U3.35)     .9391                   (X_U3.37)     .9391                       

(X_U3.38)     .9391                   (X_U3.39)     .9391                       

(X_U3.50)     .0023                   (X_U3.51)     .0023                       

(X_U3.52) 229.7E-12                   (X_U3.55)    4.9992                       

(X_U3.56)     .0012                   (X_U3.57)    3.5673                       

(X_U3.61) 109.5E-06                   (X_U3.62) 58.20E-12                       

(X_U3.70) 1.000E-06                   (X_U3.71)    2.5000                       

(X_U3.96)    3.5673                   (X_U3.98) 1.079E-06                       

(X_U3.99) 2.272E-06                   




    VOLTAGE SOURCE CURRENTS
    NAME         CURRENT

    V_V4        -6.378E-04
    V_V5         0.000E+00
    V_V6        -4.354E-05
    X_U3.V10     5.000E-05
    X_U3.V16     2.828E-12
    X_U3.V13     2.829E-12

    TOTAL POWER DISSIPATION   3.25E-03  WATTS


**** 02/20/20 22:53:27 ******* PSpice 17.4.0 (Nov 2018) ******* ID# 0 ********

 ** Profile: "SCHEMATIC1-test"  [ C:\Users\Heol\Documents\ProjetPluri\minimood\Hardware\VCF_Orcad_simulation\vcf-pspicefiles\schemati


 ****     SMALL SIGNAL BIAS SOLUTION       TEMPERATURE =   27.000 DEG C

 ****     CURRENT STEP                     PARAM K =     .9   


******************************************************************************



 NODE   VOLTAGE     NODE   VOLTAGE     NODE   VOLTAGE     NODE   VOLTAGE


(   IN)    1.5000  (  OUT)    0.0000  (  VCC)    5.0000  (N06157)    3.5673     

(N06219)     .0180 (N06231)    3.5673 (N06339) 544.9E-09 (N06345)     .4494     

[...]


 ****     SMALL SIGNAL BIAS SOLUTION       TEMPERATURE =   27.000 DEG C

 ****     CURRENT STEP                     PARAM K =    2.79  


******************************************************************************



 NODE   VOLTAGE     NODE   VOLTAGE     NODE   VOLTAGE     NODE   VOLTAGE


(   IN)    1.5000  (  OUT)    0.0000  (  VCC)    5.0000  (N06157)    3.5673     

(N06219)     .0181 (N06231)    3.5673 (N06339) 563.3E-09 (N06345)     .6334     

(N06351)    2.4994 (N06499)     .2272 (N06665)    2.5000 (DAC_OUT)    2.7900    

(X_U3.10)    5.5000                   (X_U3.11)    5.3275                       

(X_U3.12)    5.3275                   (X_U3.13)    5.3000                       

(X_U3.14)    2.4994                   (X_U3.15)    2.1543                       

(X_U3.16)    -.3000                   (X_U3.20)     .5137                       

(X_U3.21)    -.5137                   (X_U3.26)-135.0E-06                       

(X_U3.27)-241.5E-06                   (X_U3.30)     .0022                       

(X_U3.31)  111.2500                   (X_U3.32) -130.2000                       

(X_U3.33)     .0022                   (X_U3.34)     .9391                       

(X_U3.35)     .9391                   (X_U3.37)     .9391                       

(X_U3.38)     .9391                   (X_U3.39)     .9391                       

(X_U3.50)     .0023                   (X_U3.51)     .0023                       

(X_U3.52) 229.7E-12                   (X_U3.55)    4.9992                       

(X_U3.56)     .0012                   (X_U3.57)    3.5673                       

(X_U3.61) 109.5E-06                   (X_U3.62) 58.20E-12                       

(X_U3.70) 1.000E-06                   (X_U3.71)    2.5000                       

(X_U3.96)    3.5673                   (X_U3.98) 1.079E-06                       

(X_U3.99) 2.272E-06                   




    VOLTAGE SOURCE CURRENTS
    NAME         CURRENT

    V_V4        -6.378E-04
    V_V5         0.000E+00
    V_V6        -2.157E-04
    X_U3.V10     5.000E-05
    X_U3.V16     2.828E-12
    X_U3.V13     2.829E-12

    TOTAL POWER DISSIPATION   3.82E-03  WATTS


**** 02/20/20 22:53:27 ******* PSpice 17.4.0 (Nov 2018) ******* ID# 0 ********

 ** Profile: "SCHEMATIC1-test"  [ C:\Users\Heol\Documents\ProjetPluri\minimood\Hardware\VCF_Orcad_simulation\vcf-pspicefiles\schemati


 ****     SMALL SIGNAL BIAS SOLUTION       TEMPERATURE =   27.000 DEG C

 ****     CURRENT STEP                     PARAM K =    2.82  


******************************************************************************



 NODE   VOLTAGE     NODE   VOLTAGE     NODE   VOLTAGE     NODE   VOLTAGE


(   IN)    1.5000  (  OUT)    0.0000  (  VCC)    5.0000  (N06157)    3.5673     

(N06219)     .0181 (N06231)    3.5673 (N06339) 563.4E-09 (N06345)     .6339     

(N06351)    2.4994 (N06499)     .2272 (N06665)    2.5000 (DAC_OUT)    2.8200    

(X_U3.10)    5.5000                   (X_U3.11)    5.3275                       

(X_U3.12)    5.3275                   (X_U3.13)    5.3000                       

(X_U3.14)    2.4994                   (X_U3.15)    2.1543                       

(X_U3.16)    -.3000                   (X_U3.20)     .5137                       

(X_U3.21)    -.5137                   (X_U3.26)-135.0E-06                       

(X_U3.27)-241.5E-06                   (X_U3.30)     .0022                       

(X_U3.31)  111.2500                   (X_U3.32) -130.2000                       

(X_U3.33)     .0022                   (X_U3.34)     .9391                       

(X_U3.35)     .9391                   (X_U3.37)     .9391                       

(X_U3.38)     .9391                   (X_U3.39)     .9391                       

(X_U3.50)     .0023                   (X_U3.51)     .0023                       

(X_U3.52) 229.7E-12                   (X_U3.55)    4.9992                       

(X_U3.56)     .0012                   (X_U3.57)    3.5673                       

(X_U3.61) 109.5E-06                   (X_U3.62) 58.20E-12                       

(X_U3.70) 1.000E-06                   (X_U3.71)    2.5000                       

(X_U3.96)    3.5673                   (X_U3.98) 1.079E-06                       

(X_U3.99) 2.272E-06                   




    VOLTAGE SOURCE CURRENTS
    NAME         CURRENT

    V_V4        -6.378E-04
    V_V5         0.000E+00
    V_V6        -2.186E-04
    X_U3.V10     5.000E-05
    X_U3.V16     2.828E-12
    X_U3.V13     2.829E-12

    TOTAL POWER DISSIPATION   3.83E-03  WATTS


**** 02/20/20 22:53:27 ******* PSpice 17.4.0 (Nov 2018) ******* ID# 0 ********

 ** Profile: "SCHEMATIC1-test"  [ C:\Users\Heol\Documents\ProjetPluri\minimood\Hardware\VCF_Orcad_simulation\vcf-pspicefiles\schemati


 ****     SMALL SIGNAL BIAS SOLUTION       TEMPERATURE =   27.000 DEG C

 ****     CURRENT STEP                     PARAM K =    2.85  


******************************************************************************



 NODE   VOLTAGE     NODE   VOLTAGE     NODE   VOLTAGE     NODE   VOLTAGE


(   IN)    1.5000  (  OUT)    0.0000  (  VCC)    5.0000  (N06157)    3.5673     

(N06219)     .0181 (N06231)    3.5673 (N06339) 563.4E-09 (N06345)     .6343     

(N06351)    2.4994 (N06499)     .2272 (N06665)    2.5000 (DAC_OUT)    2.8500    

(X_U3.10)    5.5000                   (X_U3.11)    5.3275                       

(X_U3.12)    5.3275                   (X_U3.13)    5.3000                       

(X_U3.14)    2.4994                   (X_U3.15)    2.1543                       

(X_U3.16)    -.3000                   (X_U3.20)     .5137                       

(X_U3.21)    -.5137                   (X_U3.26)-135.0E-06                       

(X_U3.27)-241.5E-06                   (X_U3.30)     .0022                       

(X_U3.31)  111.2500                   (X_U3.32) -130.2000                       

(X_U3.33)     .0022                   (X_U3.34)     .9391                       

(X_U3.35)     .9391                   (X_U3.37)     .9391                       

(X_U3.38)     .9391                   (X_U3.39)     .9391                       

(X_U3.50)     .0023                   (X_U3.51)     .0023                       

(X_U3.52) 229.7E-12                   (X_U3.55)    4.9992                       

(X_U3.56)     .0012                   (X_U3.57)    3.5673                       

(X_U3.61) 109.5E-06                   (X_U3.62) 58.20E-12                       

(X_U3.70) 1.000E-06                   (X_U3.71)    2.5000                       

(X_U3.96)    3.5673                   (X_U3.98) 1.079E-06                       

(X_U3.99) 2.272E-06                   




    VOLTAGE SOURCE CURRENTS
    NAME         CURRENT

    V_V4        -6.378E-04
    V_V5         0.000E+00
    V_V6        -2.216E-04
    X_U3.V10     5.000E-05
    X_U3.V16     2.828E-12
    X_U3.V13     2.829E-12

    TOTAL POWER DISSIPATION   3.85E-03  WATTS


**** 02/20/20 22:53:27 ******* PSpice 17.4.0 (Nov 2018) ******* ID# 0 ********

 ** Profile: "SCHEMATIC1-test"  [ C:\Users\Heol\Documents\ProjetPluri\minimood\Hardware\VCF_Orcad_simulation\vcf-pspicefiles\schemati


 ****     SMALL SIGNAL BIAS SOLUTION       TEMPERATURE =   27.000 DEG C

 ****     CURRENT STEP                     PARAM K =    2.88  


******************************************************************************



 NODE   VOLTAGE     NODE   VOLTAGE     NODE   VOLTAGE     NODE   VOLTAGE


(   IN)    1.5000  (  OUT)    0.0000  (  VCC)    5.0000  (N06157)    3.5673     

(N06219)     .0181 (N06231)    3.5673 (N06339) 563.5E-09 (N06345)     .6348     

(N06351)    2.4994 (N06499)     .2272 (N06665)    2.5000 (DAC_OUT)    2.8800    

(X_U3.10)    5.5000                   (X_U3.11)    5.3275                       

(X_U3.12)    5.3275                   (X_U3.13)    5.3000                       

(X_U3.14)    2.4994                   (X_U3.15)    2.1543                       

(X_U3.16)    -.3000                   (X_U3.20)     .5137                       

(X_U3.21)    -.5137                   (X_U3.26)-135.0E-06                       

(X_U3.27)-241.5E-06                   (X_U3.30)     .0022                       

(X_U3.31)  111.2500                   (X_U3.32) -130.2000                       

(X_U3.33)     .0022                   (X_U3.34)     .9391                       

(X_U3.35)     .9391                   (X_U3.37)     .9391                       

(X_U3.38)     .9391                   (X_U3.39)     .9391                       

(X_U3.50)     .0023                   (X_U3.51)     .0023                       

(X_U3.52) 229.7E-12                   (X_U3.55)    4.9992                       

(X_U3.56)     .0012                   (X_U3.57)    3.5673                       

(X_U3.61) 109.5E-06                   (X_U3.62) 58.20E-12                       

(X_U3.70) 1.000E-06                   (X_U3.71)    2.5000                       

(X_U3.96)    3.5673                   (X_U3.98) 1.079E-06                       

(X_U3.99) 2.272E-06                   




    VOLTAGE SOURCE CURRENTS
    NAME         CURRENT

    V_V4        -6.378E-04
    V_V5         0.000E+00
    V_V6        -2.245E-04
    X_U3.V10     5.000E-05
    X_U3.V16     2.828E-12
    X_U3.V13     2.829E-12

    TOTAL POWER DISSIPATION   3.86E-03  WATTS


**** 02/20/20 22:53:27 ******* PSpice 17.4.0 (Nov 2018) ******* ID# 0 ********

 ** Profile: "SCHEMATIC1-test"  [ C:\Users\Heol\Documents\ProjetPluri\minimood\Hardware\VCF_Orcad_simulation\vcf-pspicefiles\schemati


 ****     SMALL SIGNAL BIAS SOLUTION       TEMPERATURE =   27.000 DEG C

 ****     CURRENT STEP                     PARAM K =    2.91  


******************************************************************************



 NODE   VOLTAGE     NODE   VOLTAGE     NODE   VOLTAGE     NODE   VOLTAGE


(   IN)    1.5000  (  OUT)    0.0000  (  VCC)    5.0000  (N06157)    3.5673     

(N06219)     .0181 (N06231)    3.5673 (N06339) 563.5E-09 (N06345)     .6353     

(N06351)    2.4994 (N06499)     .2272 (N06665)    2.5000 (DAC_OUT)    2.9100    

(X_U3.10)    5.5000                   (X_U3.11)    5.3275                       

(X_U3.12)    5.3275                   (X_U3.13)    5.3000                       

(X_U3.14)    2.4994                   (X_U3.15)    2.1543                       

(X_U3.16)    -.3000                   (X_U3.20)     .5137                       

(X_U3.21)    -.5137                   (X_U3.26)-135.0E-06                       

(X_U3.27)-241.5E-06                   (X_U3.30)     .0022                       

(X_U3.31)  111.2500                   (X_U3.32) -130.2000                       

(X_U3.33)     .0022                   (X_U3.34)     .9391                       

(X_U3.35)     .9391                   (X_U3.37)     .9391                       

(X_U3.38)     .9391                   (X_U3.39)     .9391                       

(X_U3.50)     .0023                   (X_U3.51)     .0023                       

(X_U3.52) 229.7E-12                   (X_U3.55)    4.9992                       

(X_U3.56)     .0012                   (X_U3.57)    3.5673                       

(X_U3.61) 109.5E-06                   (X_U3.62) 58.20E-12                       

(X_U3.70) 1.000E-06                   (X_U3.71)    2.5000                       

(X_U3.96)    3.5673                   (X_U3.98) 1.079E-06                       

(X_U3.99) 2.272E-06                   




    VOLTAGE SOURCE CURRENTS
    NAME         CURRENT

    V_V4        -6.378E-04
    V_V5         0.000E+00
    V_V6        -2.275E-04
    X_U3.V10     5.000E-05
    X_U3.V16     2.828E-12
    X_U3.V13     2.829E-12

    TOTAL POWER DISSIPATION   3.88E-03  WATTS


**** 02/20/20 22:53:27 ******* PSpice 17.4.0 (Nov 2018) ******* ID# 0 ********

 ** Profile: "SCHEMATIC1-test"  [ C:\Users\Heol\Documents\ProjetPluri\minimood\Hardware\VCF_Orcad_simulation\vcf-pspicefiles\schemati


 ****     SMALL SIGNAL BIAS SOLUTION       TEMPERATURE =   27.000 DEG C

 ****     CURRENT STEP                     PARAM K =    2.94  


******************************************************************************



 NODE   VOLTAGE     NODE   VOLTAGE     NODE   VOLTAGE     NODE   VOLTAGE


(   IN)    1.5000  (  OUT)    0.0000  (  VCC)    5.0000  (N06157)    3.5673     

(N06219)     .0181 (N06231)    3.5673 (N06339) 563.6E-09 (N06345)     .6357     

(N06351)    2.4994 (N06499)     .2272 (N06665)    2.5000 (DAC_OUT)    2.9400    

(X_U3.10)    5.5000                   (X_U3.11)    5.3275                       

(X_U3.12)    5.3275                   (X_U3.13)    5.3000                       

(X_U3.14)    2.4994                   (X_U3.15)    2.1543                       

(X_U3.16)    -.3000                   (X_U3.20)     .5137                       

(X_U3.21)    -.5137                   (X_U3.26)-135.0E-06                       

(X_U3.27)-241.5E-06                   (X_U3.30)     .0022                       

(X_U3.31)  111.2500                   (X_U3.32) -130.2000                       

(X_U3.33)     .0022                   (X_U3.34)     .9391                       

(X_U3.35)     .9391                   (X_U3.37)     .9391                       

(X_U3.38)     .9391                   (X_U3.39)     .9391                       

(X_U3.50)     .0023                   (X_U3.51)     .0023                       

(X_U3.52) 229.7E-12                   (X_U3.55)    4.9992                       

(X_U3.56)     .0012                   (X_U3.57)    3.5673                       

(X_U3.61) 109.5E-06                   (X_U3.62) 58.20E-12                       

(X_U3.70) 1.000E-06                   (X_U3.71)    2.5000                       

(X_U3.96)    3.5673                   (X_U3.98) 1.079E-06                       

(X_U3.99) 2.272E-06                   




    VOLTAGE SOURCE CURRENTS
    NAME         CURRENT

    V_V4        -6.378E-04
    V_V5         0.000E+00
    V_V6        -2.304E-04
    X_U3.V10     5.000E-05
    X_U3.V16     2.828E-12
    X_U3.V13     2.829E-12

    TOTAL POWER DISSIPATION   3.89E-03  WATTS


**** 02/20/20 22:53:27 ******* PSpice 17.4.0 (Nov 2018) ******* ID# 0 ********

 ** Profile: "SCHEMATIC1-test"  [ C:\Users\Heol\Documents\ProjetPluri\minimood\Hardware\VCF_Orcad_simulation\vcf-pspicefiles\schemati


 ****     SMALL SIGNAL BIAS SOLUTION       TEMPERATURE =   27.000 DEG C

 ****     CURRENT STEP                     PARAM K =    2.97  


******************************************************************************



 NODE   VOLTAGE     NODE   VOLTAGE     NODE   VOLTAGE     NODE   VOLTAGE


(   IN)    1.5000  (  OUT)    0.0000  (  VCC)    5.0000  (N06157)    3.5673     

(N06219)     .0181 (N06231)    3.5673 (N06339) 563.6E-09 (N06345)     .6362     

(N06351)    2.4994 (N06499)     .2272 (N06665)    2.5000 (DAC_OUT)    2.9700    

(X_U3.10)    5.5000                   (X_U3.11)    5.3275                       

(X_U3.12)    5.3275                   (X_U3.13)    5.3000                       

(X_U3.14)    2.4994                   (X_U3.15)    2.1543                       

(X_U3.16)    -.3000                   (X_U3.20)     .5137                       

(X_U3.21)    -.5137                   (X_U3.26)-135.0E-06                       

(X_U3.27)-241.5E-06                   (X_U3.30)     .0022                       

(X_U3.31)  111.2500                   (X_U3.32) -130.2000                       

(X_U3.33)     .0022                   (X_U3.34)     .9391                       

(X_U3.35)     .9391                   (X_U3.37)     .9391                       

(X_U3.38)     .9391                   (X_U3.39)     .9391                       

(X_U3.50)     .0023                   (X_U3.51)     .0023                       

(X_U3.52) 229.7E-12                   (X_U3.55)    4.9992                       

(X_U3.56)     .0012                   (X_U3.57)    3.5673                       

(X_U3.61) 109.5E-06                   (X_U3.62) 58.20E-12                       

(X_U3.70) 1.000E-06                   (X_U3.71)    2.5000                       

(X_U3.96)    3.5673                   (X_U3.98) 1.079E-06                       

(X_U3.99) 2.272E-06                   




    VOLTAGE SOURCE CURRENTS
    NAME         CURRENT

    V_V4        -6.378E-04
    V_V5         0.000E+00
    V_V6        -2.334E-04
    X_U3.V10     5.000E-05
    X_U3.V16     2.828E-12
    X_U3.V13     2.829E-12

    TOTAL POWER DISSIPATION   3.91E-03  WATTS


**** 02/20/20 22:53:27 ******* PSpice 17.4.0 (Nov 2018) ******* ID# 0 ********

 ** Profile: "SCHEMATIC1-test"  [ C:\Users\Heol\Documents\ProjetPluri\minimood\Hardware\VCF_Orcad_simulation\vcf-pspicefiles\schemati


 ****     SMALL SIGNAL BIAS SOLUTION       TEMPERATURE =   27.000 DEG C

 ****     CURRENT STEP                     PARAM K =    3     


******************************************************************************



 NODE   VOLTAGE     NODE   VOLTAGE     NODE   VOLTAGE     NODE   VOLTAGE


(   IN)    1.5000  (  OUT)    0.0000  (  VCC)    5.0000  (N06157)    3.5673     

(N06219)     .0181 (N06231)    3.5673 (N06339) 563.7E-09 (N06345)     .6366     

(N06351)    2.4994 (N06499)     .2272 (N06665)    2.5000 (DAC_OUT)    3.0000    

(X_U3.10)    5.5000                   (X_U3.11)    5.3275                       

(X_U3.12)    5.3275                   (X_U3.13)    5.3000                       

(X_U3.14)    2.4994                   (X_U3.15)    2.1543                       

(X_U3.16)    -.3000                   (X_U3.20)     .5137                       

(X_U3.21)    -.5137                   (X_U3.26)-135.0E-06                       

(X_U3.27)-241.5E-06                   (X_U3.30)     .0022                       

(X_U3.31)  111.2500                   (X_U3.32) -130.2000                       

(X_U3.33)     .0022                   (X_U3.34)     .9391                       

(X_U3.35)     .9391                   (X_U3.37)     .9391                       

(X_U3.38)     .9391                   (X_U3.39)     .9391                       

(X_U3.50)     .0023                   (X_U3.51)     .0023                       

(X_U3.52) 229.7E-12                   (X_U3.55)    4.9992                       

(X_U3.56)     .0012                   (X_U3.57)    3.5673                       

(X_U3.61) 109.5E-06                   (X_U3.62) 58.20E-12                       

(X_U3.70) 1.000E-06                   (X_U3.71)    2.5000                       

(X_U3.96)    3.5673                   (X_U3.98) 1.079E-06                       

(X_U3.99) 2.272E-06                   




    VOLTAGE SOURCE CURRENTS
    NAME         CURRENT

    V_V4        -6.378E-04
    V_V5         0.000E+00
    V_V6        -2.363E-04
    X_U3.V10     5.000E-05
    X_U3.V16     2.828E-12
    X_U3.V13     2.829E-12

    TOTAL POWER DISSIPATION   3.92E-03  WATTS



          JOB CONCLUDED

**** 02/20/20 22:53:27 ******* PSpice 17.4.0 (Nov 2018) ******* ID# 0 ********

 ** Profile: "SCHEMATIC1-test"  [ C:\Users\Heol\Documents\ProjetPluri\minimood\Hardware\VCF_Orcad_simulation\vcf-pspicefiles\schemati


 ****     JOB STATISTICS SUMMARY

 ****     CURRENT STEP                     PARAM K =    3     


******************************************************************************



  License check-out time            =       52.67
  Total job time (using Solver 1)   =        9.74
