
**** 02/20/20 17:20:44 ******* PSpice 17.4.0 (Nov 2018) ******* ID# 0 ********

 ** Profile: "SCHEMATIC1-test"  [ C:\Users\Heol\Downloads\VCF\VCF-PSpiceFiles\SCHEMATIC1\test.sim ] 


 ****     CIRCUIT DESCRIPTION


******************************************************************************




** Creating circuit file "test.cir" 
** WARNING: THIS AUTOMATICALLY GENERATED FILE MAY BE OVERWRITTEN BY SUBSEQUENT SIMULATIONS

*Libraries: 
* Profile Libraries :
* Local Libraries :
* From [PSPICE NETLIST] section of C:\Users\Heol\AppData\Roaming\SPB_Data\cdssetup\OrCAD_PSpice\17.4.0\PSpice.ini file:
.lib "nom.lib" 

*Analysis directives: 
.AC DEC 1k 20 20k
.STEP LIN PARAM k 0 1 0.01 
.OPTIONS ADVCONV
.PROBE64 V(alias(*)) I(alias(*)) W(alias(*)) D(alias(*)) NOISE(alias(*)) 
.INC "..\SCHEMATIC1.net" 



**** INCLUDING SCHEMATIC1.net ****
* source VCF
V_V1         VCC 0 5Vdc
R_R1         VCC N02388  100k TC=0,0 
R_R2         0 N02388  100k TC=0,0 
C_C1         N02447 OUT  4.7u  TC=0,0 
R_R3         0 OUT  10meg TC=0,0 
R_R5         N02868 N02447  470k TC=0,0 
C_C3         N03155 N02752  10n  TC=0,0 
X_R6         0 N02723 VCC POT PARAMS: SET={k} VALUE=100K
X_R7         N02447 N02447 N02752 POT PARAMS: SET=1 VALUE=10K
R_R8         N02723 N04013  10k TC=0,0 
C_C2         N02868 N03155  10n  TC=0,0 
V_V2         IN 0 DC 1.5Vdc AC 1.5Vac 
R_R9         N04635 N02868  1meg TC=0,0 
X_U2         N02388 N02868 VCC 0 N02447 MCP6001
R_R10         0 N04635  100k TC=0,0 
C_C4         IN N04635  4.7u  TC=0,0 
Q_Q1         N03155 N04013 0 BC547B 
V_V3         VCC 0 5Vdc
.PARAM  k=0

**** RESUMING test.cir ****
.END

INFO(ORPSIM-16573): AC analysis does not support expression evaluation at each frequency. ABM devices with non-linear operations will be evaluated only at bias point.

ERROR(ORPSIM-15143): Voltage source and/or inductor loop involving V_V3. You may break the loop by adding a series resistance
