
**** 02/10/20 10:38:07 ******* PSpice 17.4.0 (Nov 2018) ******* ID# 0 ********

 ** Profile: "SCHEMATIC1-test"  [ C:\Users\Julien\Documents\INSA EII\Semestre 8\ProjetPluri\minimood\Hardware\VCF_Orcad_simulation\vc


 ****     CIRCUIT DESCRIPTION


******************************************************************************




** Creating circuit file "test.cir" 
** WARNING: THIS AUTOMATICALLY GENERATED FILE MAY BE OVERWRITTEN BY SUBSEQUENT SIMULATIONS

*Libraries: 
* Profile Libraries :
* Local Libraries :
* From [PSPICE NETLIST] section of C:\Users\Julien\AppData\Roaming\SPB_Data\cdssetup\OrCAD_PSpice\17.4.0\PSpice.ini file:
.lib "nom.lib" 

*Analysis directives: 
.AC DEC 1k 20 20k
.STEP LIN Input .1 .9 0.1 
.OPTIONS ADVCONV
.PROBE64 V(alias(*)) I(alias(*)) W(alias(*)) D(alias(*)) NOISE(alias(*)) 
.INC "..\SCHEMATIC1.net" 



**** INCLUDING SCHEMATIC1.net ****
* source VCF
V_V4         VCC 0 5Vdc
R_R15         N06499 N06395  1meg TC=0,0 
R_R13         N06339 N06345  10k TC=0,0 
C_C7         INPUT N06499  4.7u  TC=0,0 
R_R17         VCC N06669  100k TC=0,0 
X_R_RES         N06157 N06157 N06231 POT PARAMS: SET={Res} VALUE=10K
C_C6         N06395 N06219  10n  TC=0,0 
C_C5         N06219 N06231  10n  TC=0,0 
Q_Q2         N06219 N06345 0 BC547B 
C_C8         N06157 OUTPUTVCF  4.7u  TC=0,0 
R_R14         N06395 N06157  470k TC=0,0 
R_R16         0 N06499  100k TC=0,0 
R_R19         0 N06669  100k TC=0,0 
X_U3         N06669 N06395 VCC 0 N06157 MCP6001
X_R_CUT         0 N06339 VCC POT PARAMS: SET={Freq} VALUE=10K
R_R20         DAC_OUT N06345  10k TC=0,0 
V_V6         DAC_OUT 0 0
X_U4         N10926 N11078 VCC 0 N11095 MCP6001
R_R22         0 N10926  100k TC=0,0 
R_R21         VCC N10926  100k TC=0,0 
R_R23         N11078 N11095  10k TC=0,0 
R_R24         OUTPUTVCF N11078  4.7k TC=0,0 
C_C9         OUTPUT N11095  100n  TC=0,0 
R_R25         0 OUTPUT  1Meg TC=0,0 
V_V7         INPUT 0 DC 0Vdc AC 1Vac 
.PARAM  k=0 res=1 freq=.00001

**** RESUMING test.cir ****
.END

INFO(ORPSIM-16573): AC analysis does not support expression evaluation at each frequency. ABM devices with non-linear operations will be evaluated only at bias point.

ERROR(ORPSIM-15090): STEP device Input is undefined
