
**** 02/20/20 17:35:38 ******* PSpice 17.4.0 (Nov 2018) ******* ID# 0 ********

 ** Profile: "SCHEMATIC1-test"  [ C:\Users\Heol\Downloads\VCF\VCF-PSpiceFiles\SCHEMATIC1\test.sim ] 


 ****     CIRCUIT DESCRIPTION


******************************************************************************




** Creating circuit file "test.cir" 
** WARNING: THIS AUTOMATICALLY GENERATED FILE MAY BE OVERWRITTEN BY SUBSEQUENT SIMULATIONS

*Libraries: 
* Profile Libraries :
* Local Libraries :
* From [PSPICE NETLIST] section of C:\Users\Heol\AppData\Roaming\SPB_Data\cdssetup\OrCAD_PSpice\17.4.0\PSpice.ini file:
.lib "nom.lib" 

*Analysis directives: 
.AC DEC 1k 20 20k
.STEP LIN PARAM k 0 1 0.01 
.OPTIONS ADVCONV
.PROBE64 V(alias(*)) I(alias(*)) W(alias(*)) D(alias(*)) NOISE(alias(*)) 
.INC "..\SCHEMATIC1.net" 



**** INCLUDING SCHEMATIC1.net ****
* source VCF
V_V4         VCC 0 5Vdc
R_R15         N06499 N06351  1meg TC=0,0 
R_R18         0 OUT  10meg TC=0,0 
R_R13         N06339 N06345  10k TC=0,0 
C_C7         IN N06499  4.7u  TC=0,0 
R_R17         VCC N06665  100k TC=0,0 
X_R11         N06157 N06157 N06231 POT PARAMS: SET=0 VALUE=10K
V_V5         IN 0 DC 1.5Vdc AC 1.5Vac 
C_C6         N06351 N06219  10n  TC=0,0 
C_C5         N06219 N06231  10n  TC=0,0 
Q_Q2         N06219 N06345 0 BC547B 
C_C8         N06157 OUT  4.7u  TC=0,0 
R_R14         N06351 N06157  470k TC=0,0 
R_R16         0 N06499  100k TC=0,0 
R_R19         0 N06665  100k TC=0,0 
X_U3         N06665 N06351 VCC 0 N06157 MCP6001
X_R12         0 N06339 VCC POT PARAMS: SET={k} VALUE=100K
.PARAM  k=0

**** RESUMING test.cir ****
.END

INFO(ORPSIM-16573): AC analysis does not support expression evaluation at each frequency. ABM devices with non-linear operations will be evaluated only at bias point.

**** 02/20/20 17:35:38 ******* PSpice 17.4.0 (Nov 2018) ******* ID# 0 ********

 ** Profile: "SCHEMATIC1-test"  [ C:\Users\Heol\Downloads\VCF\VCF-PSpiceFiles\SCHEMATIC1\test.sim ] 


 ****     Diode MODEL PARAMETERS


******************************************************************************




               X_U3.DESD       X_U3.DL         X_U3.DN1        
          IS    1.000000E-15    1.000000E-15    1.000000E-12 
          KF                                  146.000000E-18 


**** 02/20/20 17:35:38 ******* PSpice 17.4.0 (Nov 2018) ******* ID# 0 ********

 ** Profile: "SCHEMATIC1-test"  [ C:\Users\Heol\Downloads\VCF\VCF-PSpiceFiles\SCHEMATIC1\test.sim ] 


 ****     BJT MODEL PARAMETERS


******************************************************************************




               BC547B          
               NPN             
       LEVEL    1            
          IS    7.049000E-15 
          BF  374.6          
          NF    1            
         VAF   62.79         
         IKF     .08157      
         ISE   68.000000E-15 
          NE    1.576        
          BR    1            
          NR    1            
         IKR    3.924        
         ISC   12.400000E-15 
          NC    1.835        
          NK     .4767       
         ISS    0            
          RE    0            
          RC     .9747       
         CJE   11.500000E-12 
         VJE     .5          
         MJE     .6715       
         CJC    5.250000E-12 
         VJC     .5697       
         MJC     .3147       
        XCJC    1            
         CJS    0            
         VJS     .75         
          TF  410.200000E-12 
         XTF   40.06         
         VTF   10            
         ITF    1.491        
          TR   10.000000E-09 
         XTB    1.5          
          KF    0            
          AF    1            
          CN    2.42         
           D     .87         


**** 02/20/20 17:35:38 ******* PSpice 17.4.0 (Nov 2018) ******* ID# 0 ********

 ** Profile: "SCHEMATIC1-test"  [ C:\Users\Heol\Downloads\VCF\VCF-PSpiceFiles\SCHEMATIC1\test.sim ] 


 ****     MOSFET MODEL PARAMETERS


******************************************************************************




               X_U3.NMI        
               NMOS            
       LEVEL    1            
           L  100.000000E-06 
           W  100.000000E-06 
         VTO    0            
          KP   20.000000E-06 
       GAMMA    0            
         PHI     .6          
      LAMBDA    0            
          IS   10.000000E-15 
          JS    0            
          PB     .8          
        PBSW     .8          
          CJ    0            
        CJSW    0            
        CGSO    0            
        CGDO    0            
        CGBO    0            
         TOX    0            
          XJ    0            
       UCRIT   10.000000E+03 
      DIOMOD    1            
         VFB    0            
        LETA    0            
        WETA    0            
          U0    0            
        TEMP    0            
         VDD    5            
       XPART    0            


**** 02/20/20 17:35:38 ******* PSpice 17.4.0 (Nov 2018) ******* ID# 0 ********

 ** Profile: "SCHEMATIC1-test"  [ C:\Users\Heol\Downloads\VCF\VCF-PSpiceFiles\SCHEMATIC1\test.sim ] 


 ****     Resistor MODEL PARAMETERS


******************************************************************************




               X_U3.REXP       
           R    1            
         TCE   10.1          


**** 02/20/20 17:35:38 ******* PSpice 17.4.0 (Nov 2018) ******* ID# 0 ********

 ** Profile: "SCHEMATIC1-test"  [ C:\Users\Heol\Downloads\VCF\VCF-PSpiceFiles\SCHEMATIC1\test.sim ] 


 ****     SMALL SIGNAL BIAS SOLUTION       TEMPERATURE =   27.000 DEG C

 ****     CURRENT STEP                     PARAM K =    0     


******************************************************************************



 NODE   VOLTAGE     NODE   VOLTAGE     NODE   VOLTAGE     NODE   VOLTAGE


(   IN)    1.5000  (  OUT)    0.0000  (  VCC)    5.0000  (N06157)    3.5673     

(N06219)     .0182 (N06231)    3.5673 (N06339)    5.0000 (N06345)     .6606     

(N06351)    2.4994 (N06499)     .2272 (N06665)    2.5000 (X_U3.10)    5.5000    

(X_U3.11)    5.3275                   (X_U3.12)    5.3275                       

(X_U3.13)    5.3000                   (X_U3.14)    2.4994                       

(X_U3.15)    2.1543                   (X_U3.16)    -.3000                       

(X_U3.20)     .5137                   (X_U3.21)    -.5137                       

(X_U3.26)-135.0E-06                   (X_U3.27)-241.5E-06                       

(X_U3.30)     .0022                   (X_U3.31)  111.2500                       

(X_U3.32) -130.2000                   (X_U3.33)     .0022                       

(X_U3.34)     .9391                   (X_U3.35)     .9391                       

(X_U3.37)     .9391                   (X_U3.38)     .9391                       

(X_U3.39)     .9391                   (X_U3.50)     .0023                       

(X_U3.51)     .0023                   (X_U3.52) 229.7E-12                       

(X_U3.55)    4.9992                   (X_U3.56)     .0012                       

(X_U3.57)    3.5673                   (X_U3.61) 109.5E-06                       

(X_U3.62) 58.20E-12                   (X_U3.70) 1.000E-06                       

(X_U3.71)    2.5000                   (X_U3.96)    3.5673                       

(X_U3.98) 1.079E-06                   (X_U3.99) 2.272E-06                   




    VOLTAGE SOURCE CURRENTS
    NAME         CURRENT

    V_V4        -6.217E-04
    V_V5         0.000E+00
    X_U3.V10     5.000E-05
    X_U3.V16     2.828E-12
    X_U3.V13     2.829E-12

    TOTAL POWER DISSIPATION   3.13E-03  WATTS


**** 02/20/20 17:35:38 ******* PSpice 17.4.0 (Nov 2018) ******* ID# 0 ********

 ** Profile: "SCHEMATIC1-test"  [ C:\Users\Heol\Downloads\VCF\VCF-PSpiceFiles\SCHEMATIC1\test.sim ] 


 ****     SMALL SIGNAL BIAS SOLUTION       TEMPERATURE =   27.000 DEG C

 ****     CURRENT STEP                     PARAM K =     .01  


******************************************************************************



 NODE   VOLTAGE     NODE   VOLTAGE     NODE   VOLTAGE     NODE   VOLTAGE


(   IN)    1.5000  (  OUT)    0.0000  (  VCC)    5.0000  (N06157)    3.5673     

(N06219)     .0182 (N06231)    3.5673 (N06339)    4.5634 (N06345)     .6578     

(N06351)    2.4994 (N06499)     .2272 (N06665)    2.5000 (X_U3.10)    5.5000    

(X_U3.11)    5.3275                   (X_U3.12)    5.3275                       

(X_U3.13)    5.3000                   (X_U3.14)    2.4994                       

(X_U3.15)    2.1543                   (X_U3.16)    -.3000                       

(X_U3.20)     .5137                   (X_U3.21)    -.5137                       

(X_U3.26)-135.0E-06                   (X_U3.27)-241.5E-06                       

(X_U3.30)     .0022                   (X_U3.31)  111.2500                       

(X_U3.32) -130.2000                   (X_U3.33)     .0022                       

(X_U3.34)     .9391                   (X_U3.35)     .9391                       

(X_U3.37)     .9391                   (X_U3.38)     .9391                       

(X_U3.39)     .9391                   (X_U3.50)     .0023                       

(X_U3.51)     .0023                   (X_U3.52) 229.7E-12                       

(X_U3.55)    4.9992                   (X_U3.56)     .0012                       

(X_U3.57)    3.5673                   (X_U3.61) 109.5E-06                       

(X_U3.62) 58.20E-12                   (X_U3.70) 1.000E-06                       

(X_U3.71)    2.5000                   (X_U3.96)    3.5673                       

(X_U3.98) 1.079E-06                   (X_U3.99) 2.272E-06                   




    VOLTAGE SOURCE CURRENTS
    NAME         CURRENT

    V_V4        -5.744E-04
    V_V5         0.000E+00
    X_U3.V10     5.000E-05
    X_U3.V16     2.828E-12
    X_U3.V13     2.829E-12

    TOTAL POWER DISSIPATION   2.90E-03  WATTS


**** 02/20/20 17:35:38 ******* PSpice 17.4.0 (Nov 2018) ******* ID# 0 ********

 ** Profile: "SCHEMATIC1-test"  [ C:\Users\Heol\Downloads\VCF\VCF-PSpiceFiles\SCHEMATIC1\test.sim ] 


 ****     SMALL SIGNAL BIAS SOLUTION       TEMPERATURE =   27.000 DEG C

 ****     CURRENT STEP                     PARAM K =     .02  


******************************************************************************



 NODE   VOLTAGE     NODE   VOLTAGE     NODE   VOLTAGE     NODE   VOLTAGE


(   IN)    1.5000  (  OUT)    0.0000  (  VCC)    5.0000  (N06157)    3.5673     

(N06219)     .0182 (N06231)    3.5673 (N06339)    4.2044 (N06345)     .6553     

(N06351)    2.4994 (N06499)     .2272 (N06665)    2.5000 (X_U3.10)    5.5000    

(X_U3.11)    5.3275                   (X_U3.12)    5.3275                       

(X_U3.13)    5.3000                   (X_U3.14)    2.4994                       

(X_U3.15)    2.1543                   (X_U3.16)    -.3000                       

(X_U3.20)     .5137                   (X_U3.21)    -.5137                       

(X_U3.26)-135.0E-06                   (X_U3.27)-241.5E-06                       

(X_U3.30)     .0022                   (X_U3.31)  111.2500                       

(X_U3.32) -130.2000                   (X_U3.33)     .0022                       

(X_U3.34)     .9391                   (X_U3.35)     .9391                       

(X_U3.37)     .9391                   (X_U3.38)     .9391                       

(X_U3.39)     .9391                   (X_U3.50)     .0023                       

(X_U3.51)     .0023                   (X_U3.52) 229.7E-12                       

(X_U3.55)    4.9992                   (X_U3.56)     .0012                       

(X_U3.57)    3.5673                   (X_U3.61) 109.5E-06                       

(X_U3.62) 58.20E-12                   (X_U3.70) 1.000E-06                       

(X_U3.71)    2.5000                   (X_U3.96)    3.5673                       

(X_U3.98) 1.079E-06                   (X_U3.99) 2.272E-06                   




    VOLTAGE SOURCE CURRENTS
    NAME         CURRENT

    V_V4        -5.356E-04
    V_V5         0.000E+00
    X_U3.V10     5.000E-05
    X_U3.V16     2.828E-12
    X_U3.V13     2.829E-12

    TOTAL POWER DISSIPATION   2.70E-03  WATTS


**** 02/20/20 17:35:38 ******* PSpice 17.4.0 (Nov 2018) ******* ID# 0 ********

 ** Profile: "SCHEMATIC1-test"  [ C:\Users\Heol\Downloads\VCF\VCF-PSpiceFiles\SCHEMATIC1\test.sim ] 


 ****     SMALL SIGNAL BIAS SOLUTION       TEMPERATURE =   27.000 DEG C

 ****     CURRENT STEP                     PARAM K =     .03  


******************************************************************************



 NODE   VOLTAGE     NODE   VOLTAGE     NODE   VOLTAGE     NODE   VOLTAGE


(   IN)    1.5000  (  OUT)    0.0000  (  VCC)    5.0000  (N06157)    3.5673     

(N06219)     .0182 (N06231)    3.5673 (N06339)    3.9040 (N06345)     .6531     

(N06351)    2.4994 (N06499)     .2272 (N06665)    2.5000 (X_U3.10)    5.5000    

(X_U3.11)    5.3275                   (X_U3.12)    5.3275                       

(X_U3.13)    5.3000                   (X_U3.14)    2.4994                       

(X_U3.15)    2.1543                   (X_U3.16)    -.3000                       

(X_U3.20)     .5137                   (X_U3.21)    -.5137                       

(X_U3.26)-135.0E-06                   (X_U3.27)-241.5E-06                       

(X_U3.30)     .0022                   (X_U3.31)  111.2500                       

(X_U3.32) -130.2000                   (X_U3.33)     .0022                       

(X_U3.34)     .9391                   (X_U3.35)     .9391                       

(X_U3.37)     .9391                   (X_U3.38)     .9391                       

(X_U3.39)     .9391                   (X_U3.50)     .0023                       

(X_U3.51)     .0023                   (X_U3.52) 229.7E-12                       

(X_U3.55)    4.9992                   (X_U3.56)     .0012                       

(X_U3.57)    3.5673                   (X_U3.61) 109.5E-06                       

(X_U3.62) 58.20E-12                   (X_U3.70) 1.000E-06                       

(X_U3.71)    2.5000                   (X_U3.96)    3.5673                       

(X_U3.98) 1.079E-06                   (X_U3.99) 2.272E-06                   




    VOLTAGE SOURCE CURRENTS
    NAME         CURRENT

    V_V4        -5.031E-04
    V_V5         0.000E+00
    X_U3.V10     5.000E-05
    X_U3.V16     2.828E-12
    X_U3.V13     2.829E-12

    TOTAL POWER DISSIPATION   2.54E-03  WATTS


**** 02/20/20 17:35:38 ******* PSpice 17.4.0 (Nov 2018) ******* ID# 0 ********

 ** Profile: "SCHEMATIC1-test"  [ C:\Users\Heol\Downloads\VCF\VCF-PSpiceFiles\SCHEMATIC1\test.sim ] 


 ****     SMALL SIGNAL BIAS SOLUTION       TEMPERATURE =   27.000 DEG C

 ****     CURRENT STEP                     PARAM K =     .04  


******************************************************************************



 NODE   VOLTAGE     NODE   VOLTAGE     NODE   VOLTAGE     NODE   VOLTAGE


(   IN)    1.5000  (  OUT)    0.0000  (  VCC)    5.0000  (N06157)    3.5673     

(N06219)     .0182 (N06231)    3.5673 (N06339)    3.6488 (N06345)     .6509     

(N06351)    2.4994 (N06499)     .2272 (N06665)    2.5000 (X_U3.10)    5.5000    

(X_U3.11)    5.3275                   (X_U3.12)    5.3275                       

(X_U3.13)    5.3000                   (X_U3.14)    2.4994                       

(X_U3.15)    2.1543                   (X_U3.16)    -.3000                       

(X_U3.20)     .5137                   (X_U3.21)    -.5137                       

(X_U3.26)-135.0E-06                   (X_U3.27)-241.5E-06                       

(X_U3.30)     .0022                   (X_U3.31)  111.2500                       

(X_U3.32) -130.2000                   (X_U3.33)     .0022                       

(X_U3.34)     .9391                   (X_U3.35)     .9391                       

(X_U3.37)     .9391                   (X_U3.38)     .9391                       

(X_U3.39)     .9391                   (X_U3.50)     .0023                       

(X_U3.51)     .0023                   (X_U3.52) 229.7E-12                       

(X_U3.55)    4.9992                   (X_U3.56)     .0012                       

(X_U3.57)    3.5673                   (X_U3.61) 109.5E-06                       

(X_U3.62) 58.20E-12                   (X_U3.70) 1.000E-06                       

(X_U3.71)    2.5000                   (X_U3.96)    3.5673                       

(X_U3.98) 1.079E-06                   (X_U3.99) 2.272E-06                   




    VOLTAGE SOURCE CURRENTS
    NAME         CURRENT

    V_V4        -4.756E-04
    V_V5         0.000E+00
    X_U3.V10     5.000E-05
    X_U3.V16     2.828E-12
    X_U3.V13     2.829E-12

    TOTAL POWER DISSIPATION   2.40E-03  WATTS


**** 02/20/20 17:35:38 ******* PSpice 17.4.0 (Nov 2018) ******* ID# 0 ********

 ** Profile: "SCHEMATIC1-test"  [ C:\Users\Heol\Downloads\VCF\VCF-PSpiceFiles\SCHEMATIC1\test.sim ] 


 ****     SMALL SIGNAL BIAS SOLUTION       TEMPERATURE =   27.000 DEG C

 ****     CURRENT STEP                     PARAM K =     .05  


******************************************************************************



 NODE   VOLTAGE     NODE   VOLTAGE     NODE   VOLTAGE     NODE   VOLTAGE


(   IN)    1.5000  (  OUT)    0.0000  (  VCC)    5.0000  (N06157)    3.5673     

(N06219)     .0181 (N06231)    3.5673 (N06339)    3.4293 (N06345)     .6490     

(N06351)    2.4994 (N06499)     .2272 (N06665)    2.5000 (X_U3.10)    5.5000    

(X_U3.11)    5.3275                   (X_U3.12)    5.3275                       

(X_U3.13)    5.3000                   (X_U3.14)    2.4994                       

(X_U3.15)    2.1543                   (X_U3.16)    -.3000                       

(X_U3.20)     .5137                   (X_U3.21)    -.5137                       

(X_U3.26)-135.0E-06                   (X_U3.27)-241.5E-06                       

(X_U3.30)     .0022                   (X_U3.31)  111.2500                       

(X_U3.32) -130.2000                   (X_U3.33)     .0022                       

(X_U3.34)     .9391                   (X_U3.35)     .9391                       

(X_U3.37)     .9391                   (X_U3.38)     .9391                       

(X_U3.39)     .9391                   (X_U3.50)     .0023                       

(X_U3.51)     .0023                   (X_U3.52) 229.7E-12                       

(X_U3.55)    4.9992                   (X_U3.56)     .0012                       

(X_U3.57)    3.5673                   (X_U3.61) 109.5E-06                       

(X_U3.62) 58.20E-12                   (X_U3.70) 1.000E-06                       

(X_U3.71)    2.5000                   (X_U3.96)    3.5673                       

(X_U3.98) 1.079E-06                   (X_U3.99) 2.272E-06                   




    VOLTAGE SOURCE CURRENTS
    NAME         CURRENT

    V_V4        -4.519E-04
    V_V5         0.000E+00
    X_U3.V10     5.000E-05
    X_U3.V16     2.828E-12
    X_U3.V13     2.829E-12

    TOTAL POWER DISSIPATION   2.28E-03  WATTS


**** 02/20/20 17:35:38 ******* PSpice 17.4.0 (Nov 2018) ******* ID# 0 ********

 ** Profile: "SCHEMATIC1-test"  [ C:\Users\Heol\Downloads\VCF\VCF-PSpiceFiles\SCHEMATIC1\test.sim ] 


 ****     SMALL SIGNAL BIAS SOLUTION       TEMPERATURE =   27.000 DEG C

 ****     CURRENT STEP                     PARAM K =     .06  


******************************************************************************



 NODE   VOLTAGE     NODE   VOLTAGE     NODE   VOLTAGE     NODE   VOLTAGE


(   IN)    1.5000  (  OUT)    0.0000  (  VCC)    5.0000  (N06157)    3.5673     

(N06219)     .0181 (N06231)    3.5673 (N06339)    3.2385 (N06345)     .6472     

(N06351)    2.4994 (N06499)     .2272 (N06665)    2.5000 (X_U3.10)    5.5000    

(X_U3.11)    5.3275                   (X_U3.12)    5.3275                       

(X_U3.13)    5.3000                   (X_U3.14)    2.4994                       

(X_U3.15)    2.1543                   (X_U3.16)    -.3000                       

(X_U3.20)     .5137                   (X_U3.21)    -.5137                       

(X_U3.26)-135.0E-06                   (X_U3.27)-241.5E-06                       

(X_U3.30)     .0022                   (X_U3.31)  111.2500                       

(X_U3.32) -130.2000                   (X_U3.33)     .0022                       

(X_U3.34)     .9391                   (X_U3.35)     .9391                       

(X_U3.37)     .9391                   (X_U3.38)     .9391                       

(X_U3.39)     .9391                   (X_U3.50)     .0023                       

(X_U3.51)     .0023                   (X_U3.52) 229.7E-12                       

(X_U3.55)    4.9992                   (X_U3.56)     .0012                       

(X_U3.57)    3.5673                   (X_U3.61) 109.5E-06                       

(X_U3.62) 58.20E-12                   (X_U3.70) 1.000E-06                       

(X_U3.71)    2.5000                   (X_U3.96)    3.5673                       

(X_U3.98) 1.079E-06                   (X_U3.99) 2.272E-06                   




    VOLTAGE SOURCE CURRENTS
    NAME         CURRENT

    V_V4        -4.313E-04
    V_V5         0.000E+00
    X_U3.V10     5.000E-05
    X_U3.V16     2.828E-12
    X_U3.V13     2.829E-12

    TOTAL POWER DISSIPATION   2.18E-03  WATTS


**** 02/20/20 17:35:38 ******* PSpice 17.4.0 (Nov 2018) ******* ID# 0 ********

 ** Profile: "SCHEMATIC1-test"  [ C:\Users\Heol\Downloads\VCF\VCF-PSpiceFiles\SCHEMATIC1\test.sim ] 


 ****     SMALL SIGNAL BIAS SOLUTION       TEMPERATURE =   27.000 DEG C

 ****     CURRENT STEP                     PARAM K =     .07  


******************************************************************************



 NODE   VOLTAGE     NODE   VOLTAGE     NODE   VOLTAGE     NODE   VOLTAGE


(   IN)    1.5000  (  OUT)    0.0000  (  VCC)    5.0000  (N06157)    3.5673     

(N06219)     .0181 (N06231)    3.5673 (N06339)    3.0710 (N06345)     .6454     

(N06351)    2.4994 (N06499)     .2272 (N06665)    2.5000 (X_U3.10)    5.5000    

(X_U3.11)    5.3275                   (X_U3.12)    5.3275                       

(X_U3.13)    5.3000                   (X_U3.14)    2.4994                       

(X_U3.15)    2.1543                   (X_U3.16)    -.3000                       

(X_U3.20)     .5137                   (X_U3.21)    -.5137                       

(X_U3.26)-135.0E-06                   (X_U3.27)-241.5E-06                       

(X_U3.30)     .0022                   (X_U3.31)  111.2500                       

(X_U3.32) -130.2000                   (X_U3.33)     .0022                       

(X_U3.34)     .9391                   (X_U3.35)     .9391                       

(X_U3.37)     .9391                   (X_U3.38)     .9391                       

(X_U3.39)     .9391                   (X_U3.50)     .0023                       

(X_U3.51)     .0023                   (X_U3.52) 229.7E-12                       

(X_U3.55)    4.9992                   (X_U3.56)     .0012                       

(X_U3.57)    3.5673                   (X_U3.61) 109.5E-06                       

(X_U3.62) 58.20E-12                   (X_U3.70) 1.000E-06                       

(X_U3.71)    2.5000                   (X_U3.96)    3.5673                       

(X_U3.98) 1.079E-06                   (X_U3.99) 2.272E-06                   




    VOLTAGE SOURCE CURRENTS
    NAME         CURRENT

    V_V4        -4.133E-04
    V_V5         0.000E+00
    X_U3.V10     5.000E-05
    X_U3.V16     2.828E-12
    X_U3.V13     2.829E-12

    TOTAL POWER DISSIPATION   2.09E-03  WATTS


**** 02/20/20 17:35:38 ******* PSpice 17.4.0 (Nov 2018) ******* ID# 0 ********

 ** Profile: "SCHEMATIC1-test"  [ C:\Users\Heol\Downloads\VCF\VCF-PSpiceFiles\SCHEMATIC1\test.sim ] 


 ****     SMALL SIGNAL BIAS SOLUTION       TEMPERATURE =   27.000 DEG C

 ****     CURRENT STEP                     PARAM K =     .08  


******************************************************************************



 NODE   VOLTAGE     NODE   VOLTAGE     NODE   VOLTAGE     NODE   VOLTAGE


(   IN)    1.5000  (  OUT)    0.0000  (  VCC)    5.0000  (N06157)    3.5673     

(N06219)     .0181 (N06231)    3.5673 (N06339)    2.9227 (N06345)     .6438     

(N06351)    2.4994 (N06499)     .2272 (N06665)    2.5000 (X_U3.10)    5.5000    

(X_U3.11)    5.3275                   (X_U3.12)    5.3275                       

(X_U3.13)    5.3000                   (X_U3.14)    2.4994                       

(X_U3.15)    2.1543                   (X_U3.16)    -.3000                       

(X_U3.20)     .5137                   (X_U3.21)    -.5137                       

(X_U3.26)-135.0E-06                   (X_U3.27)-241.5E-06                       

(X_U3.30)     .0022                   (X_U3.31)  111.2500                       

(X_U3.32) -130.2000                   (X_U3.33)     .0022                       

(X_U3.34)     .9391                   (X_U3.35)     .9391                       

(X_U3.37)     .9391                   (X_U3.38)     .9391                       

(X_U3.39)     .9391                   (X_U3.50)     .0023                       

(X_U3.51)     .0023                   (X_U3.52) 229.7E-12                       

(X_U3.55)    4.9992                   (X_U3.56)     .0012                       

(X_U3.57)    3.5673                   (X_U3.61) 109.5E-06                       

(X_U3.62) 58.20E-12                   (X_U3.70) 1.000E-06                       

(X_U3.71)    2.5000                   (X_U3.96)    3.5673                       

(X_U3.98) 1.079E-06                   (X_U3.99) 2.272E-06                   




    VOLTAGE SOURCE CURRENTS
    NAME         CURRENT

    V_V4        -3.974E-04
    V_V5         0.000E+00
    X_U3.V10     5.000E-05
    X_U3.V16     2.828E-12
    X_U3.V13     2.829E-12

    TOTAL POWER DISSIPATION   2.01E-03  WATTS


**** 02/20/20 17:35:38 ******* PSpice 17.4.0 (Nov 2018) ******* ID# 0 ********

 ** Profile: "SCHEMATIC1-test"  [ C:\Users\Heol\Downloads\VCF\VCF-PSpiceFiles\SCHEMATIC1\test.sim ] 


 ****     SMALL SIGNAL BIAS SOLUTION       TEMPERATURE =   27.000 DEG C

 ****     CURRENT STEP                     PARAM K =     .09  


******************************************************************************



 NODE   VOLTAGE     NODE   VOLTAGE     NODE   VOLTAGE     NODE   VOLTAGE


(   IN)    1.5000  (  OUT)    0.0000  (  VCC)    5.0000  (N06157)    3.5673     

(N06219)     .0181 (N06231)    3.5673 (N06339)    2.7906 (N06345)     .6423     

(N06351)    2.4994 (N06499)     .2272 (N06665)    2.5000 (X_U3.10)    5.5000    

(X_U3.11)    5.3275                   (X_U3.12)    5.3275                       

(X_U3.13)    5.3000                   (X_U3.14)    2.4994                       

(X_U3.15)    2.1543                   (X_U3.16)    -.3000                       

(X_U3.20)     .5137                   (X_U3.21)    -.5137                       

(X_U3.26)-135.0E-06                   (X_U3.27)-241.5E-06                       

(X_U3.30)     .0022                   (X_U3.31)  111.2500                       

(X_U3.32) -130.2000                   (X_U3.33)     .0022                       

(X_U3.34)     .9391                   (X_U3.35)     .9391                       

(X_U3.37)     .9391                   (X_U3.38)     .9391                       

(X_U3.39)     .9391                   (X_U3.50)     .0023                       

(X_U3.51)     .0023                   (X_U3.52) 229.7E-12                       

(X_U3.55)    4.9992                   (X_U3.56)     .0012                       

(X_U3.57)    3.5673                   (X_U3.61) 109.5E-06                       

(X_U3.62) 58.20E-12                   (X_U3.70) 1.000E-06                       

(X_U3.71)    2.5000                   (X_U3.96)    3.5673                       

(X_U3.98) 1.079E-06                   (X_U3.99) 2.272E-06                   




    VOLTAGE SOURCE CURRENTS
    NAME         CURRENT

    V_V4        -3.833E-04
    V_V5         0.000E+00
    X_U3.V10     5.000E-05
    X_U3.V16     2.828E-12
    X_U3.V13     2.829E-12

    TOTAL POWER DISSIPATION   1.94E-03  WATTS


**** 02/20/20 17:35:38 ******* PSpice 17.4.0 (Nov 2018) ******* ID# 0 ********

 ** Profile: "SCHEMATIC1-test"  [ C:\Users\Heol\Downloads\VCF\VCF-PSpiceFiles\SCHEMATIC1\test.sim ] 


 ****     SMALL SIGNAL BIAS SOLUTION       TEMPERATURE =   27.000 DEG C

 ****     CURRENT STEP                     PARAM K =     .1   


******************************************************************************



 NODE   VOLTAGE     NODE   VOLTAGE     NODE   VOLTAGE     NODE   VOLTAGE


(   IN)    1.5000  (  OUT)    0.0000  (  VCC)    5.0000  (N06157)    3.5673     

(N06219)     .0181 (N06231)    3.5673 (N06339)    2.6720 (N06345)     .6408     

(N06351)    2.4994 (N06499)     .2272 (N06665)    2.5000 (X_U3.10)    5.5000    

(X_U3.11)    5.3275                   (X_U3.12)    5.3275                       

(X_U3.13)    5.3000                   (X_U3.14)    2.4994                       

(X_U3.15)    2.1543                   (X_U3.16)    -.3000                       

(X_U3.20)     .5137                   (X_U3.21)    -.5137                       

(X_U3.26)-135.0E-06                   (X_U3.27)-241.5E-06                       

(X_U3.30)     .0022                   (X_U3.31)  111.2500                       

(X_U3.32) -130.2000                   (X_U3.33)     .0022                       

(X_U3.34)     .9391                   (X_U3.35)     .9391                       

(X_U3.37)     .9391                   (X_U3.38)     .9391                       

(X_U3.39)     .9391                   (X_U3.50)     .0023                       

(X_U3.51)     .0023                   (X_U3.52) 229.7E-12                       

(X_U3.55)    4.9992                   (X_U3.56)     .0012                       

(X_U3.57)    3.5673                   (X_U3.61) 109.5E-06                       

(X_U3.62) 58.20E-12                   (X_U3.70) 1.000E-06                       

(X_U3.71)    2.5000                   (X_U3.96)    3.5673                       

(X_U3.98) 1.079E-06                   (X_U3.99) 2.272E-06                   




    VOLTAGE SOURCE CURRENTS
    NAME         CURRENT

    V_V4        -3.706E-04
    V_V5         0.000E+00
    X_U3.V10     5.000E-05
    X_U3.V16     2.828E-12
    X_U3.V13     2.829E-12

    TOTAL POWER DISSIPATION   1.88E-03  WATTS


**** 02/20/20 17:35:38 ******* PSpice 17.4.0 (Nov 2018) ******* ID# 0 ********

 ** Profile: "SCHEMATIC1-test"  [ C:\Users\Heol\Downloads\VCF\VCF-PSpiceFiles\SCHEMATIC1\test.sim ] 


 ****     SMALL SIGNAL BIAS SOLUTION       TEMPERATURE =   27.000 DEG C

 ****     CURRENT STEP                     PARAM K =     .11  


******************************************************************************



 NODE   VOLTAGE     NODE   VOLTAGE     NODE   VOLTAGE     NODE   VOLTAGE


(   IN)    1.5000  (  OUT)    0.0000  (  VCC)    5.0000  (N06157)    3.5673     

(N06219)     .0181 (N06231)    3.5673 (N06339)    2.5649 (N06345)     .6395     

(N06351)    2.4994 (N06499)     .2272 (N06665)    2.5000 (X_U3.10)    5.5000    

(X_U3.11)    5.3275                   (X_U3.12)    5.3275                       

(X_U3.13)    5.3000                   (X_U3.14)    2.4994                       

(X_U3.15)    2.1543                   (X_U3.16)    -.3000                       

(X_U3.20)     .5137                   (X_U3.21)    -.5137                       

(X_U3.26)-135.0E-06                   (X_U3.27)-241.5E-06                       

(X_U3.30)     .0022                   (X_U3.31)  111.2500                       

(X_U3.32) -130.2000                   (X_U3.33)     .0022                       

(X_U3.34)     .9391                   (X_U3.35)     .9391                       

(X_U3.37)     .9391                   (X_U3.38)     .9391                       

(X_U3.39)     .9391                   (X_U3.50)     .0023                       

(X_U3.51)     .0023                   (X_U3.52) 229.7E-12                       

(X_U3.55)    4.9992                   (X_U3.56)     .0012                       

(X_U3.57)    3.5673                   (X_U3.61) 109.5E-06                       

(X_U3.62) 58.20E-12                   (X_U3.70) 1.000E-06                       

(X_U3.71)    2.5000                   (X_U3.96)    3.5673                       

(X_U3.98) 1.079E-06                   (X_U3.99) 2.272E-06                   




    VOLTAGE SOURCE CURRENTS
    NAME         CURRENT

    V_V4        -3.591E-04
    V_V5         0.000E+00
    X_U3.V10     5.000E-05
    X_U3.V16     2.828E-12
    X_U3.V13     2.829E-12

    TOTAL POWER DISSIPATION   1.82E-03  WATTS


**** 02/20/20 17:35:38 ******* PSpice 17.4.0 (Nov 2018) ******* ID# 0 ********

 ** Profile: "SCHEMATIC1-test"  [ C:\Users\Heol\Downloads\VCF\VCF-PSpiceFiles\SCHEMATIC1\test.sim ] 


 ****     SMALL SIGNAL BIAS SOLUTION       TEMPERATURE =   27.000 DEG C

 ****     CURRENT STEP                     PARAM K =     .12  


******************************************************************************



 NODE   VOLTAGE     NODE   VOLTAGE     NODE   VOLTAGE     NODE   VOLTAGE


(   IN)    1.5000  (  OUT)    0.0000  (  VCC)    5.0000  (N06157)    3.5673     

(N06219)     .0181 (N06231)    3.5673 (N06339)    2.4678 (N06345)     .6381     

(N06351)    2.4994 (N06499)     .2272 (N06665)    2.5000 (X_U3.10)    5.5000    

(X_U3.11)    5.3275                   (X_U3.12)    5.3275                       

(X_U3.13)    5.3000                   (X_U3.14)    2.4994                       

(X_U3.15)    2.1543                   (X_U3.16)    -.3000                       

(X_U3.20)     .5137                   (X_U3.21)    -.5137                       

(X_U3.26)-135.0E-06                   (X_U3.27)-241.5E-06                       

(X_U3.30)     .0022                   (X_U3.31)  111.2500                       

(X_U3.32) -130.2000                   (X_U3.33)     .0022                       

(X_U3.34)     .9391                   (X_U3.35)     .9391                       

(X_U3.37)     .9391                   (X_U3.38)     .9391                       

(X_U3.39)     .9391                   (X_U3.50)     .0023                       

(X_U3.51)     .0023                   (X_U3.52) 229.7E-12                       

(X_U3.55)    4.9992                   (X_U3.56)     .0012                       

(X_U3.57)    3.5673                   (X_U3.61) 109.5E-06                       

(X_U3.62) 58.20E-12                   (X_U3.70) 1.000E-06                       

(X_U3.71)    2.5000                   (X_U3.96)    3.5673                       

(X_U3.98) 1.079E-06                   (X_U3.99) 2.272E-06                   




    VOLTAGE SOURCE CURRENTS
    NAME         CURRENT

    V_V4        -3.488E-04
    V_V5         0.000E+00
    X_U3.V10     5.000E-05
    X_U3.V16     2.828E-12
    X_U3.V13     2.829E-12

    TOTAL POWER DISSIPATION   1.77E-03  WATTS


**** 02/20/20 17:35:38 ******* PSpice 17.4.0 (Nov 2018) ******* ID# 0 ********

 ** Profile: "SCHEMATIC1-test"  [ C:\Users\Heol\Downloads\VCF\VCF-PSpiceFiles\SCHEMATIC1\test.sim ] 


 ****     SMALL SIGNAL BIAS SOLUTION       TEMPERATURE =   27.000 DEG C

 ****     CURRENT STEP                     PARAM K =     .13  


******************************************************************************



 NODE   VOLTAGE     NODE   VOLTAGE     NODE   VOLTAGE     NODE   VOLTAGE


(   IN)    1.5000  (  OUT)    0.0000  (  VCC)    5.0000  (N06157)    3.5673     

(N06219)     .0181 (N06231)    3.5673 (N06339)    2.3793 (N06345)     .6369     

(N06351)    2.4994 (N06499)     .2272 (N06665)    2.5000 (X_U3.10)    5.5000    

(X_U3.11)    5.3275                   (X_U3.12)    5.3275                       

(X_U3.13)    5.3000                   (X_U3.14)    2.4994                       

(X_U3.15)    2.1543                   (X_U3.16)    -.3000                       

(X_U3.20)     .5137                   (X_U3.21)    -.5137                       

(X_U3.26)-135.0E-06                   (X_U3.27)-241.5E-06                       

(X_U3.30)     .0022                   (X_U3.31)  111.2500                       

(X_U3.32) -130.2000                   (X_U3.33)     .0022                       

(X_U3.34)     .9391                   (X_U3.35)     .9391                       

(X_U3.37)     .9391                   (X_U3.38)     .9391                       

(X_U3.39)     .9391                   (X_U3.50)     .0023                       

(X_U3.51)     .0023                   (X_U3.52) 229.7E-12                       

(X_U3.55)    4.9992                   (X_U3.56)     .0012                       

(X_U3.57)    3.5673                   (X_U3.61) 109.5E-06                       

(X_U3.62) 58.20E-12                   (X_U3.70) 1.000E-06                       

(X_U3.71)    2.5000                   (X_U3.96)    3.5673                       

(X_U3.98) 1.079E-06                   (X_U3.99) 2.272E-06                   




    VOLTAGE SOURCE CURRENTS
    NAME         CURRENT

    V_V4        -3.394E-04
    V_V5         0.000E+00
    X_U3.V10     5.000E-05
    X_U3.V16     2.828E-12
    X_U3.V13     2.829E-12

    TOTAL POWER DISSIPATION   1.72E-03  WATTS


**** 02/20/20 17:35:38 ******* PSpice 17.4.0 (Nov 2018) ******* ID# 0 ********

 ** Profile: "SCHEMATIC1-test"  [ C:\Users\Heol\Downloads\VCF\VCF-PSpiceFiles\SCHEMATIC1\test.sim ] 


 ****     SMALL SIGNAL BIAS SOLUTION       TEMPERATURE =   27.000 DEG C

 ****     CURRENT STEP                     PARAM K =     .14  


******************************************************************************



 NODE   VOLTAGE     NODE   VOLTAGE     NODE   VOLTAGE     NODE   VOLTAGE


(   IN)    1.5000  (  OUT)    0.0000  (  VCC)    5.0000  (N06157)    3.5673     

(N06219)     .0181 (N06231)    3.5673 (N06339)    2.2982 (N06345)     .6356     

(N06351)    2.4994 (N06499)     .2272 (N06665)    2.5000 (X_U3.10)    5.5000    

(X_U3.11)    5.3275                   (X_U3.12)    5.3275                       

(X_U3.13)    5.3000                   (X_U3.14)    2.4994                       

(X_U3.15)    2.1543                   (X_U3.16)    -.3000                       

(X_U3.20)     .5137                   (X_U3.21)    -.5137                       

(X_U3.26)-135.0E-06                   (X_U3.27)-241.5E-06                       

(X_U3.30)     .0022                   (X_U3.31)  111.2500                       

(X_U3.32) -130.2000                   (X_U3.33)     .0022                       

(X_U3.34)     .9391                   (X_U3.35)     .9391                       

(X_U3.37)     .9391                   (X_U3.38)     .9391                       

(X_U3.39)     .9391                   (X_U3.50)     .0023                       

(X_U3.51)     .0023                   (X_U3.52) 229.7E-12                       

(X_U3.55)    4.9992                   (X_U3.56)     .0012                       

(X_U3.57)    3.5673                   (X_U3.61) 109.5E-06                       

(X_U3.62) 58.20E-12                   (X_U3.70) 1.000E-06                       

(X_U3.71)    2.5000                   (X_U3.96)    3.5673                       

(X_U3.98) 1.079E-06                   (X_U3.99) 2.272E-06                   




    VOLTAGE SOURCE CURRENTS
    NAME         CURRENT

    V_V4        -3.307E-04
    V_V5         0.000E+00
    X_U3.V10     5.000E-05
    X_U3.V16     2.828E-12
    X_U3.V13     2.829E-12

    TOTAL POWER DISSIPATION   1.68E-03  WATTS


**** 02/20/20 17:35:38 ******* PSpice 17.4.0 (Nov 2018) ******* ID# 0 ********

 ** Profile: "SCHEMATIC1-test"  [ C:\Users\Heol\Downloads\VCF\VCF-PSpiceFiles\SCHEMATIC1\test.sim ] 


 ****     SMALL SIGNAL BIAS SOLUTION       TEMPERATURE =   27.000 DEG C

 ****     CURRENT STEP                     PARAM K =     .15  


******************************************************************************



 NODE   VOLTAGE     NODE   VOLTAGE     NODE   VOLTAGE     NODE   VOLTAGE


(   IN)    1.5000  (  OUT)    0.0000  (  VCC)    5.0000  (N06157)    3.5673     

(N06219)     .0181 (N06231)    3.5673 (N06339)    2.2237 (N06345)     .6345     

(N06351)    2.4994 (N06499)     .2272 (N06665)    2.5000 (X_U3.10)    5.5000    

(X_U3.11)    5.3275                   (X_U3.12)    5.3275                       

(X_U3.13)    5.3000                   (X_U3.14)    2.4994                       

(X_U3.15)    2.1543                   (X_U3.16)    -.3000                       

(X_U3.20)     .5137                   (X_U3.21)    -.5137                       

(X_U3.26)-135.0E-06                   (X_U3.27)-241.5E-06                       

(X_U3.30)     .0022                   (X_U3.31)  111.2500                       

(X_U3.32) -130.2000                   (X_U3.33)     .0022                       

(X_U3.34)     .9391                   (X_U3.35)     .9391                       

(X_U3.37)     .9391                   (X_U3.38)     .9391                       

(X_U3.39)     .9391                   (X_U3.50)     .0023                       

(X_U3.51)     .0023                   (X_U3.52) 229.7E-12                       

(X_U3.55)    4.9992                   (X_U3.56)     .0012                       

(X_U3.57)    3.5673                   (X_U3.61) 109.5E-06                       

(X_U3.62) 58.20E-12                   (X_U3.70) 1.000E-06                       

(X_U3.71)    2.5000                   (X_U3.96)    3.5673                       

(X_U3.98) 1.079E-06                   (X_U3.99) 2.272E-06                   




    VOLTAGE SOURCE CURRENTS
    NAME         CURRENT

    V_V4        -3.228E-04
    V_V5         0.000E+00
    X_U3.V10     5.000E-05
    X_U3.V16     2.828E-12
    X_U3.V13     2.829E-12

    TOTAL POWER DISSIPATION   1.64E-03  WATTS


**** 02/20/20 17:35:38 ******* PSpice 17.4.0 (Nov 2018) ******* ID# 0 ********

 ** Profile: "SCHEMATIC1-test"  [ C:\Users\Heol\Downloads\VCF\VCF-PSpiceFiles\SCHEMATIC1\test.sim ] 


 ****     SMALL SIGNAL BIAS SOLUTION       TEMPERATURE =   27.000 DEG C

 ****     CURRENT STEP                     PARAM K =     .16  


******************************************************************************



 NODE   VOLTAGE     NODE   VOLTAGE     NODE   VOLTAGE     NODE   VOLTAGE


(   IN)    1.5000  (  OUT)    0.0000  (  VCC)    5.0000  (N06157)    3.5673     

(N06219)     .0181 (N06231)    3.5673 (N06339)    2.1550 (N06345)     .6333     

(N06351)    2.4994 (N06499)     .2272 (N06665)    2.5000 (X_U3.10)    5.5000    

(X_U3.11)    5.3275                   (X_U3.12)    5.3275                       

(X_U3.13)    5.3000                   (X_U3.14)    2.4994                       

(X_U3.15)    2.1543                   (X_U3.16)    -.3000                       

(X_U3.20)     .5137                   (X_U3.21)    -.5137                       

(X_U3.26)-135.0E-06                   (X_U3.27)-241.5E-06                       

(X_U3.30)     .0022                   (X_U3.31)  111.2500                       

(X_U3.32) -130.2000                   (X_U3.33)     .0022                       

(X_U3.34)     .9391                   (X_U3.35)     .9391                       

(X_U3.37)     .9391                   (X_U3.38)     .9391                       

(X_U3.39)     .9391                   (X_U3.50)     .0023                       

(X_U3.51)     .0023                   (X_U3.52) 229.7E-12                       

(X_U3.55)    4.9992                   (X_U3.56)     .0012                       

(X_U3.57)    3.5673                   (X_U3.61) 109.5E-06                       

(X_U3.62) 58.20E-12                   (X_U3.70) 1.000E-06                       

(X_U3.71)    2.5000                   (X_U3.96)    3.5673                       

(X_U3.98) 1.079E-06                   (X_U3.99) 2.272E-06                   




    VOLTAGE SOURCE CURRENTS
    NAME         CURRENT

    V_V4        -3.156E-04
    V_V5         0.000E+00
    X_U3.V10     5.000E-05
    X_U3.V16     2.828E-12
    X_U3.V13     2.829E-12

    TOTAL POWER DISSIPATION   1.60E-03  WATTS


**** 02/20/20 17:35:38 ******* PSpice 17.4.0 (Nov 2018) ******* ID# 0 ********

 ** Profile: "SCHEMATIC1-test"  [ C:\Users\Heol\Downloads\VCF\VCF-PSpiceFiles\SCHEMATIC1\test.sim ] 


 ****     SMALL SIGNAL BIAS SOLUTION       TEMPERATURE =   27.000 DEG C

 ****     CURRENT STEP                     PARAM K =     .17  


******************************************************************************



 NODE   VOLTAGE     NODE   VOLTAGE     NODE   VOLTAGE     NODE   VOLTAGE


(   IN)    1.5000  (  OUT)    0.0000  (  VCC)    5.0000  (N06157)    3.5673     

(N06219)     .0181 (N06231)    3.5673 (N06339)    2.0913 (N06345)     .6323     

(N06351)    2.4994 (N06499)     .2272 (N06665)    2.5000 (X_U3.10)    5.5000    

(X_U3.11)    5.3275                   (X_U3.12)    5.3275                       

(X_U3.13)    5.3000                   (X_U3.14)    2.4994                       

(X_U3.15)    2.1543                   (X_U3.16)    -.3000                       

(X_U3.20)     .5137                   (X_U3.21)    -.5137                       

(X_U3.26)-135.0E-06                   (X_U3.27)-241.5E-06                       

(X_U3.30)     .0022                   (X_U3.31)  111.2500                       

(X_U3.32) -130.2000                   (X_U3.33)     .0022                       

(X_U3.34)     .9391                   (X_U3.35)     .9391                       

(X_U3.37)     .9391                   (X_U3.38)     .9391                       

(X_U3.39)     .9391                   (X_U3.50)     .0023                       

(X_U3.51)     .0023                   (X_U3.52) 229.7E-12                       

(X_U3.55)    4.9992                   (X_U3.56)     .0012                       

(X_U3.57)    3.5673                   (X_U3.61) 109.5E-06                       

(X_U3.62) 58.20E-12                   (X_U3.70) 1.000E-06                       

(X_U3.71)    2.5000                   (X_U3.96)    3.5673                       

(X_U3.98) 1.079E-06                   (X_U3.99) 2.272E-06                   




    VOLTAGE SOURCE CURRENTS
    NAME         CURRENT

    V_V4        -3.089E-04
    V_V5         0.000E+00
    X_U3.V10     5.000E-05
    X_U3.V16     2.828E-12
    X_U3.V13     2.829E-12

    TOTAL POWER DISSIPATION   1.57E-03  WATTS


**** 02/20/20 17:35:38 ******* PSpice 17.4.0 (Nov 2018) ******* ID# 0 ********

 ** Profile: "SCHEMATIC1-test"  [ C:\Users\Heol\Downloads\VCF\VCF-PSpiceFiles\SCHEMATIC1\test.sim ] 


 ****     SMALL SIGNAL BIAS SOLUTION       TEMPERATURE =   27.000 DEG C

 ****     CURRENT STEP                     PARAM K =     .18  


******************************************************************************



 NODE   VOLTAGE     NODE   VOLTAGE     NODE   VOLTAGE     NODE   VOLTAGE


(   IN)    1.5000  (  OUT)    0.0000  (  VCC)    5.0000  (N06157)    3.5673     

(N06219)     .0181 (N06231)    3.5673 (N06339)    2.0322 (N06345)     .6312     

(N06351)    2.4994 (N06499)     .2272 (N06665)    2.5000 (X_U3.10)    5.5000    

(X_U3.11)    5.3275                   (X_U3.12)    5.3275                       

(X_U3.13)    5.3000                   (X_U3.14)    2.4994                       

(X_U3.15)    2.1543                   (X_U3.16)    -.3000                       

(X_U3.20)     .5137                   (X_U3.21)    -.5137                       

(X_U3.26)-135.0E-06                   (X_U3.27)-241.5E-06                       

(X_U3.30)     .0022                   (X_U3.31)  111.2500                       

(X_U3.32) -130.2000                   (X_U3.33)     .0022                       

(X_U3.34)     .9391                   (X_U3.35)     .9391                       

(X_U3.37)     .9391                   (X_U3.38)     .9391                       

(X_U3.39)     .9391                   (X_U3.50)     .0023                       

(X_U3.51)     .0023                   (X_U3.52) 229.7E-12                       

(X_U3.55)    4.9992                   (X_U3.56)     .0012                       

(X_U3.57)    3.5673                   (X_U3.61) 109.5E-06                       

(X_U3.62) 58.20E-12                   (X_U3.70) 1.000E-06                       

(X_U3.71)    2.5000                   (X_U3.96)    3.5673                       

(X_U3.98) 1.079E-06                   (X_U3.99) 2.272E-06                   




    VOLTAGE SOURCE CURRENTS
    NAME         CURRENT

    V_V4        -3.026E-04
    V_V5         0.000E+00
    X_U3.V10     5.000E-05
    X_U3.V16     2.828E-12
    X_U3.V13     2.829E-12

    TOTAL POWER DISSIPATION   1.54E-03  WATTS


**** 02/20/20 17:35:38 ******* PSpice 17.4.0 (Nov 2018) ******* ID# 0 ********

 ** Profile: "SCHEMATIC1-test"  [ C:\Users\Heol\Downloads\VCF\VCF-PSpiceFiles\SCHEMATIC1\test.sim ] 


 ****     SMALL SIGNAL BIAS SOLUTION       TEMPERATURE =   27.000 DEG C

 ****     CURRENT STEP                     PARAM K =     .19  


******************************************************************************



 NODE   VOLTAGE     NODE   VOLTAGE     NODE   VOLTAGE     NODE   VOLTAGE


(   IN)    1.5000  (  OUT)    0.0000  (  VCC)    5.0000  (N06157)    3.5673     

(N06219)     .0181 (N06231)    3.5673 (N06339)    1.9771 (N06345)     .6302     

(N06351)    2.4994 (N06499)     .2272 (N06665)    2.5000 (X_U3.10)    5.5000    

(X_U3.11)    5.3275                   (X_U3.12)    5.3275                       

(X_U3.13)    5.3000                   (X_U3.14)    2.4994                       

(X_U3.15)    2.1543                   (X_U3.16)    -.3000                       

(X_U3.20)     .5137                   (X_U3.21)    -.5137                       

(X_U3.26)-135.0E-06                   (X_U3.27)-241.5E-06                       

(X_U3.30)     .0022                   (X_U3.31)  111.2500                       

(X_U3.32) -130.2000                   (X_U3.33)     .0022                       

(X_U3.34)     .9391                   (X_U3.35)     .9391                       

(X_U3.37)     .9391                   (X_U3.38)     .9391                       

(X_U3.39)     .9391                   (X_U3.50)     .0023                       

(X_U3.51)     .0023                   (X_U3.52) 229.7E-12                       

(X_U3.55)    4.9992                   (X_U3.56)     .0012                       

(X_U3.57)    3.5673                   (X_U3.61) 109.5E-06                       

(X_U3.62) 58.20E-12                   (X_U3.70) 1.000E-06                       

(X_U3.71)    2.5000                   (X_U3.96)    3.5673                       

(X_U3.98) 1.079E-06                   (X_U3.99) 2.272E-06                   




    VOLTAGE SOURCE CURRENTS
    NAME         CURRENT

    V_V4        -2.969E-04
    V_V5         0.000E+00
    X_U3.V10     5.000E-05
    X_U3.V16     2.828E-12
    X_U3.V13     2.829E-12

    TOTAL POWER DISSIPATION   1.51E-03  WATTS


**** 02/20/20 17:35:38 ******* PSpice 17.4.0 (Nov 2018) ******* ID# 0 ********

 ** Profile: "SCHEMATIC1-test"  [ C:\Users\Heol\Downloads\VCF\VCF-PSpiceFiles\SCHEMATIC1\test.sim ] 


 ****     SMALL SIGNAL BIAS SOLUTION       TEMPERATURE =   27.000 DEG C

 ****     CURRENT STEP                     PARAM K =     .2   


******************************************************************************



 NODE   VOLTAGE     NODE   VOLTAGE     NODE   VOLTAGE     NODE   VOLTAGE


(   IN)    1.5000  (  OUT)    0.0000  (  VCC)    5.0000  (N06157)    3.5673     

(N06219)     .0181 (N06231)    3.5673 (N06339)    1.9257 (N06345)     .6292     

(N06351)    2.4994 (N06499)     .2272 (N06665)    2.5000 (X_U3.10)    5.5000    

(X_U3.11)    5.3275                   (X_U3.12)    5.3275                       

(X_U3.13)    5.3000                   (X_U3.14)    2.4994                       

(X_U3.15)    2.1543                   (X_U3.16)    -.3000                       

(X_U3.20)     .5137                   (X_U3.21)    -.5137                       

(X_U3.26)-135.0E-06                   (X_U3.27)-241.5E-06                       

(X_U3.30)     .0022                   (X_U3.31)  111.2500                       

(X_U3.32) -130.2000                   (X_U3.33)     .0022                       

(X_U3.34)     .9391                   (X_U3.35)     .9391                       

(X_U3.37)     .9391                   (X_U3.38)     .9391                       

(X_U3.39)     .9391                   (X_U3.50)     .0023                       

(X_U3.51)     .0023                   (X_U3.52) 229.7E-12                       

(X_U3.55)    4.9992                   (X_U3.56)     .0012                       

(X_U3.57)    3.5673                   (X_U3.61) 109.5E-06                       

(X_U3.62) 58.20E-12                   (X_U3.70) 1.000E-06                       

(X_U3.71)    2.5000                   (X_U3.96)    3.5673                       

(X_U3.98) 1.079E-06                   (X_U3.99) 2.272E-06                   




    VOLTAGE SOURCE CURRENTS
    NAME         CURRENT

    V_V4        -2.915E-04
    V_V5         0.000E+00
    X_U3.V10     5.000E-05
    X_U3.V16     2.828E-12
    X_U3.V13     2.829E-12

    TOTAL POWER DISSIPATION   1.48E-03  WATTS


**** 02/20/20 17:35:38 ******* PSpice 17.4.0 (Nov 2018) ******* ID# 0 ********

 ** Profile: "SCHEMATIC1-test"  [ C:\Users\Heol\Downloads\VCF\VCF-PSpiceFiles\SCHEMATIC1\test.sim ] 


 ****     SMALL SIGNAL BIAS SOLUTION       TEMPERATURE =   27.000 DEG C

 ****     CURRENT STEP                     PARAM K =     .21  


******************************************************************************



 NODE   VOLTAGE     NODE   VOLTAGE     NODE   VOLTAGE     NODE   VOLTAGE


(   IN)    1.5000  (  OUT)    0.0000  (  VCC)    5.0000  (N06157)    3.5673     

(N06219)     .0181 (N06231)    3.5673 (N06339)    1.8775 (N06345)     .6282     

(N06351)    2.4994 (N06499)     .2272 (N06665)    2.5000 (X_U3.10)    5.5000    

(X_U3.11)    5.3275                   (X_U3.12)    5.3275                       

(X_U3.13)    5.3000                   (X_U3.14)    2.4994                       

(X_U3.15)    2.1543                   (X_U3.16)    -.3000                       

(X_U3.20)     .5137                   (X_U3.21)    -.5137                       

(X_U3.26)-135.0E-06                   (X_U3.27)-241.5E-06                       

(X_U3.30)     .0022                   (X_U3.31)  111.2500                       

(X_U3.32) -130.2000                   (X_U3.33)     .0022                       

(X_U3.34)     .9391                   (X_U3.35)     .9391                       

(X_U3.37)     .9391                   (X_U3.38)     .9391                       

(X_U3.39)     .9391                   (X_U3.50)     .0023                       

(X_U3.51)     .0023                   (X_U3.52) 229.7E-12                       

(X_U3.55)    4.9992                   (X_U3.56)     .0012                       

(X_U3.57)    3.5673                   (X_U3.61) 109.5E-06                       

(X_U3.62) 58.20E-12                   (X_U3.70) 1.000E-06                       

(X_U3.71)    2.5000                   (X_U3.96)    3.5673                       

(X_U3.98) 1.079E-06                   (X_U3.99) 2.272E-06                   




    VOLTAGE SOURCE CURRENTS
    NAME         CURRENT

    V_V4        -2.865E-04
    V_V5         0.000E+00
    X_U3.V10     5.000E-05
    X_U3.V16     2.828E-12
    X_U3.V13     2.829E-12

    TOTAL POWER DISSIPATION   1.46E-03  WATTS


**** 02/20/20 17:35:38 ******* PSpice 17.4.0 (Nov 2018) ******* ID# 0 ********

 ** Profile: "SCHEMATIC1-test"  [ C:\Users\Heol\Downloads\VCF\VCF-PSpiceFiles\SCHEMATIC1\test.sim ] 


 ****     SMALL SIGNAL BIAS SOLUTION       TEMPERATURE =   27.000 DEG C

 ****     CURRENT STEP                     PARAM K =     .22  


******************************************************************************



 NODE   VOLTAGE     NODE   VOLTAGE     NODE   VOLTAGE     NODE   VOLTAGE


(   IN)    1.5000  (  OUT)    0.0000  (  VCC)    5.0000  (N06157)    3.5673     

(N06219)     .0181 (N06231)    3.5673 (N06339)    1.8323 (N06345)     .6273     

(N06351)    2.4994 (N06499)     .2272 (N06665)    2.5000 (X_U3.10)    5.5000    

(X_U3.11)    5.3275                   (X_U3.12)    5.3275                       

(X_U3.13)    5.3000                   (X_U3.14)    2.4994                       

(X_U3.15)    2.1543                   (X_U3.16)    -.3000                       

(X_U3.20)     .5137                   (X_U3.21)    -.5137                       

(X_U3.26)-135.0E-06                   (X_U3.27)-241.5E-06                       

(X_U3.30)     .0022                   (X_U3.31)  111.2500                       

(X_U3.32) -130.2000                   (X_U3.33)     .0022                       

(X_U3.34)     .9391                   (X_U3.35)     .9391                       

(X_U3.37)     .9391                   (X_U3.38)     .9391                       

(X_U3.39)     .9391                   (X_U3.50)     .0023                       

(X_U3.51)     .0023                   (X_U3.52) 229.7E-12                       

(X_U3.55)    4.9992                   (X_U3.56)     .0012                       

(X_U3.57)    3.5673                   (X_U3.61) 109.5E-06                       

(X_U3.62) 58.20E-12                   (X_U3.70) 1.000E-06                       

(X_U3.71)    2.5000                   (X_U3.96)    3.5673                       

(X_U3.98) 1.079E-06                   (X_U3.99) 2.272E-06                   




    VOLTAGE SOURCE CURRENTS
    NAME         CURRENT

    V_V4        -2.817E-04
    V_V5         0.000E+00
    X_U3.V10     5.000E-05
    X_U3.V16     2.828E-12
    X_U3.V13     2.829E-12

    TOTAL POWER DISSIPATION   1.43E-03  WATTS


**** 02/20/20 17:35:38 ******* PSpice 17.4.0 (Nov 2018) ******* ID# 0 ********

 ** Profile: "SCHEMATIC1-test"  [ C:\Users\Heol\Downloads\VCF\VCF-PSpiceFiles\SCHEMATIC1\test.sim ] 


 ****     SMALL SIGNAL BIAS SOLUTION       TEMPERATURE =   27.000 DEG C

 ****     CURRENT STEP                     PARAM K =     .23  


******************************************************************************



 NODE   VOLTAGE     NODE   VOLTAGE     NODE   VOLTAGE     NODE   VOLTAGE


(   IN)    1.5000  (  OUT)    0.0000  (  VCC)    5.0000  (N06157)    3.5673     

(N06219)     .0181 (N06231)    3.5673 (N06339)    1.7897 (N06345)     .6264     

(N06351)    2.4994 (N06499)     .2272 (N06665)    2.5000 (X_U3.10)    5.5000    

(X_U3.11)    5.3275                   (X_U3.12)    5.3275                       

(X_U3.13)    5.3000                   (X_U3.14)    2.4994                       

(X_U3.15)    2.1543                   (X_U3.16)    -.3000                       

(X_U3.20)     .5137                   (X_U3.21)    -.5137                       

(X_U3.26)-135.0E-06                   (X_U3.27)-241.5E-06                       

(X_U3.30)     .0022                   (X_U3.31)  111.2500                       

(X_U3.32) -130.2000                   (X_U3.33)     .0022                       

(X_U3.34)     .9391                   (X_U3.35)     .9391                       

(X_U3.37)     .9391                   (X_U3.38)     .9391                       

(X_U3.39)     .9391                   (X_U3.50)     .0023                       

(X_U3.51)     .0023                   (X_U3.52) 229.7E-12                       

(X_U3.55)    4.9992                   (X_U3.56)     .0012                       

(X_U3.57)    3.5673                   (X_U3.61) 109.5E-06                       

(X_U3.62) 58.20E-12                   (X_U3.70) 1.000E-06                       

(X_U3.71)    2.5000                   (X_U3.96)    3.5673                       

(X_U3.98) 1.079E-06                   (X_U3.99) 2.272E-06                   




    VOLTAGE SOURCE CURRENTS
    NAME         CURRENT

    V_V4        -2.773E-04
    V_V5         0.000E+00
    X_U3.V10     5.000E-05
    X_U3.V16     2.828E-12
    X_U3.V13     2.829E-12

    TOTAL POWER DISSIPATION   1.41E-03  WATTS


**** 02/20/20 17:35:38 ******* PSpice 17.4.0 (Nov 2018) ******* ID# 0 ********

 ** Profile: "SCHEMATIC1-test"  [ C:\Users\Heol\Downloads\VCF\VCF-PSpiceFiles\SCHEMATIC1\test.sim ] 


 ****     SMALL SIGNAL BIAS SOLUTION       TEMPERATURE =   27.000 DEG C

 ****     CURRENT STEP                     PARAM K =     .24  


******************************************************************************



 NODE   VOLTAGE     NODE   VOLTAGE     NODE   VOLTAGE     NODE   VOLTAGE


(   IN)    1.5000  (  OUT)    0.0000  (  VCC)    5.0000  (N06157)    3.5673     

(N06219)     .0181 (N06231)    3.5673 (N06339)    1.7496 (N06345)     .6255     

(N06351)    2.4994 (N06499)     .2272 (N06665)    2.5000 (X_U3.10)    5.5000    

(X_U3.11)    5.3275                   (X_U3.12)    5.3275                       

(X_U3.13)    5.3000                   (X_U3.14)    2.4994                       

(X_U3.15)    2.1543                   (X_U3.16)    -.3000                       

(X_U3.20)     .5137                   (X_U3.21)    -.5137                       

(X_U3.26)-135.0E-06                   (X_U3.27)-241.5E-06                       

(X_U3.30)     .0022                   (X_U3.31)  111.2500                       

(X_U3.32) -130.2000                   (X_U3.33)     .0022                       

(X_U3.34)     .9391                   (X_U3.35)     .9391                       

(X_U3.37)     .9391                   (X_U3.38)     .9391                       

(X_U3.39)     .9391                   (X_U3.50)     .0023                       

(X_U3.51)     .0023                   (X_U3.52) 229.7E-12                       

(X_U3.55)    4.9992                   (X_U3.56)     .0012                       

(X_U3.57)    3.5673                   (X_U3.61) 109.5E-06                       

(X_U3.62) 58.20E-12                   (X_U3.70) 1.000E-06                       

(X_U3.71)    2.5000                   (X_U3.96)    3.5673                       

(X_U3.98) 1.079E-06                   (X_U3.99) 2.272E-06                   




    VOLTAGE SOURCE CURRENTS
    NAME         CURRENT

    V_V4        -2.732E-04
    V_V5         0.000E+00
    X_U3.V10     5.000E-05
    X_U3.V16     2.828E-12
    X_U3.V13     2.829E-12

    TOTAL POWER DISSIPATION   1.39E-03  WATTS


**** 02/20/20 17:35:38 ******* PSpice 17.4.0 (Nov 2018) ******* ID# 0 ********

 ** Profile: "SCHEMATIC1-test"  [ C:\Users\Heol\Downloads\VCF\VCF-PSpiceFiles\SCHEMATIC1\test.sim ] 


 ****     SMALL SIGNAL BIAS SOLUTION       TEMPERATURE =   27.000 DEG C

 ****     CURRENT STEP                     PARAM K =     .25  


******************************************************************************



 NODE   VOLTAGE     NODE   VOLTAGE     NODE   VOLTAGE     NODE   VOLTAGE


(   IN)    1.5000  (  OUT)    0.0000  (  VCC)    5.0000  (N06157)    3.5673     

(N06219)     .0181 (N06231)    3.5673 (N06339)    1.7117 (N06345)     .6246     

(N06351)    2.4994 (N06499)     .2272 (N06665)    2.5000 (X_U3.10)    5.5000    

(X_U3.11)    5.3275                   (X_U3.12)    5.3275                       

(X_U3.13)    5.3000                   (X_U3.14)    2.4994                       

(X_U3.15)    2.1543                   (X_U3.16)    -.3000                       

(X_U3.20)     .5137                   (X_U3.21)    -.5137                       

(X_U3.26)-135.0E-06                   (X_U3.27)-241.5E-06                       

(X_U3.30)     .0022                   (X_U3.31)  111.2500                       

(X_U3.32) -130.2000                   (X_U3.33)     .0022                       

(X_U3.34)     .9391                   (X_U3.35)     .9391                       

(X_U3.37)     .9391                   (X_U3.38)     .9391                       

(X_U3.39)     .9391                   (X_U3.50)     .0023                       

(X_U3.51)     .0023                   (X_U3.52) 229.7E-12                       

(X_U3.55)    4.9992                   (X_U3.56)     .0012                       

(X_U3.57)    3.5673                   (X_U3.61) 109.5E-06                       

(X_U3.62) 58.20E-12                   (X_U3.70) 1.000E-06                       

(X_U3.71)    2.5000                   (X_U3.96)    3.5673                       

(X_U3.98) 1.079E-06                   (X_U3.99) 2.272E-06                   




    VOLTAGE SOURCE CURRENTS
    NAME         CURRENT

    V_V4        -2.693E-04
    V_V5         0.000E+00
    X_U3.V10     5.000E-05
    X_U3.V16     2.828E-12
    X_U3.V13     2.829E-12

    TOTAL POWER DISSIPATION   1.37E-03  WATTS


**** 02/20/20 17:35:38 ******* PSpice 17.4.0 (Nov 2018) ******* ID# 0 ********

 ** Profile: "SCHEMATIC1-test"  [ C:\Users\Heol\Downloads\VCF\VCF-PSpiceFiles\SCHEMATIC1\test.sim ] 


 ****     SMALL SIGNAL BIAS SOLUTION       TEMPERATURE =   27.000 DEG C

 ****     CURRENT STEP                     PARAM K =     .26  


******************************************************************************



 NODE   VOLTAGE     NODE   VOLTAGE     NODE   VOLTAGE     NODE   VOLTAGE


(   IN)    1.5000  (  OUT)    0.0000  (  VCC)    5.0000  (N06157)    3.5673     

(N06219)     .0181 (N06231)    3.5673 (N06339)    1.6758 (N06345)     .6238     

(N06351)    2.4994 (N06499)     .2272 (N06665)    2.5000 (X_U3.10)    5.5000    

(X_U3.11)    5.3275                   (X_U3.12)    5.3275                       

(X_U3.13)    5.3000                   (X_U3.14)    2.4994                       

(X_U3.15)    2.1543                   (X_U3.16)    -.3000                       

(X_U3.20)     .5137                   (X_U3.21)    -.5137                       

(X_U3.26)-135.0E-06                   (X_U3.27)-241.5E-06                       

(X_U3.30)     .0022                   (X_U3.31)  111.2500                       

(X_U3.32) -130.2000                   (X_U3.33)     .0022                       

(X_U3.34)     .9391                   (X_U3.35)     .9391                       

(X_U3.37)     .9391                   (X_U3.38)     .9391                       

(X_U3.39)     .9391                   (X_U3.50)     .0023                       

(X_U3.51)     .0023                   (X_U3.52) 229.7E-12                       

(X_U3.55)    4.9992                   (X_U3.56)     .0012                       

(X_U3.57)    3.5673                   (X_U3.61) 109.5E-06                       

(X_U3.62) 58.20E-12                   (X_U3.70) 1.000E-06                       

(X_U3.71)    2.5000                   (X_U3.96)    3.5673                       

(X_U3.98) 1.079E-06                   (X_U3.99) 2.272E-06                   




    VOLTAGE SOURCE CURRENTS
    NAME         CURRENT

    V_V4        -2.656E-04
    V_V5         0.000E+00
    X_U3.V10     5.000E-05
    X_U3.V16     2.828E-12
    X_U3.V13     2.829E-12

    TOTAL POWER DISSIPATION   1.35E-03  WATTS


**** 02/20/20 17:35:38 ******* PSpice 17.4.0 (Nov 2018) ******* ID# 0 ********

 ** Profile: "SCHEMATIC1-test"  [ C:\Users\Heol\Downloads\VCF\VCF-PSpiceFiles\SCHEMATIC1\test.sim ] 


 ****     SMALL SIGNAL BIAS SOLUTION       TEMPERATURE =   27.000 DEG C

 ****     CURRENT STEP                     PARAM K =     .27  


******************************************************************************



 NODE   VOLTAGE     NODE   VOLTAGE     NODE   VOLTAGE     NODE   VOLTAGE


(   IN)    1.5000  (  OUT)    0.0000  (  VCC)    5.0000  (N06157)    3.5673     

(N06219)     .0181 (N06231)    3.5673 (N06339)    1.6418 (N06345)     .6229     

(N06351)    2.4994 (N06499)     .2272 (N06665)    2.5000 (X_U3.10)    5.5000    

(X_U3.11)    5.3275                   (X_U3.12)    5.3275                       

(X_U3.13)    5.3000                   (X_U3.14)    2.4994                       

(X_U3.15)    2.1543                   (X_U3.16)    -.3000                       

(X_U3.20)     .5137                   (X_U3.21)    -.5137                       

(X_U3.26)-135.0E-06                   (X_U3.27)-241.5E-06                       

(X_U3.30)     .0022                   (X_U3.31)  111.2500                       

(X_U3.32) -130.2000                   (X_U3.33)     .0022                       

(X_U3.34)     .9391                   (X_U3.35)     .9391                       

(X_U3.37)     .9391                   (X_U3.38)     .9391                       

(X_U3.39)     .9391                   (X_U3.50)     .0023                       

(X_U3.51)     .0023                   (X_U3.52) 229.7E-12                       

(X_U3.55)    4.9992                   (X_U3.56)     .0012                       

(X_U3.57)    3.5673                   (X_U3.61) 109.5E-06                       

(X_U3.62) 58.20E-12                   (X_U3.70) 1.000E-06                       

(X_U3.71)    2.5000                   (X_U3.96)    3.5673                       

(X_U3.98) 1.079E-06                   (X_U3.99) 2.272E-06                   




    VOLTAGE SOURCE CURRENTS
    NAME         CURRENT

    V_V4        -2.621E-04
    V_V5         0.000E+00
    X_U3.V10     5.000E-05
    X_U3.V16     2.828E-12
    X_U3.V13     2.829E-12

    TOTAL POWER DISSIPATION   1.34E-03  WATTS


**** 02/20/20 17:35:38 ******* PSpice 17.4.0 (Nov 2018) ******* ID# 0 ********

 ** Profile: "SCHEMATIC1-test"  [ C:\Users\Heol\Downloads\VCF\VCF-PSpiceFiles\SCHEMATIC1\test.sim ] 


 ****     SMALL SIGNAL BIAS SOLUTION       TEMPERATURE =   27.000 DEG C

 ****     CURRENT STEP                     PARAM K =     .28  


******************************************************************************



 NODE   VOLTAGE     NODE   VOLTAGE     NODE   VOLTAGE     NODE   VOLTAGE


(   IN)    1.5000  (  OUT)    0.0000  (  VCC)    5.0000  (N06157)    3.5673     

(N06219)     .0181 (N06231)    3.5673 (N06339)    1.6095 (N06345)     .6221     

(N06351)    2.4994 (N06499)     .2272 (N06665)    2.5000 (X_U3.10)    5.5000    

(X_U3.11)    5.3275                   (X_U3.12)    5.3275                       

(X_U3.13)    5.3000                   (X_U3.14)    2.4994                       

(X_U3.15)    2.1543                   (X_U3.16)    -.3000                       

(X_U3.20)     .5137                   (X_U3.21)    -.5137                       

(X_U3.26)-135.0E-06                   (X_U3.27)-241.5E-06                       

(X_U3.30)     .0022                   (X_U3.31)  111.2500                       

(X_U3.32) -130.2000                   (X_U3.33)     .0022                       

(X_U3.34)     .9391                   (X_U3.35)     .9391                       

(X_U3.37)     .9391                   (X_U3.38)     .9391                       

(X_U3.39)     .9391                   (X_U3.50)     .0023                       

(X_U3.51)     .0023                   (X_U3.52) 229.7E-12                       

(X_U3.55)    4.9992                   (X_U3.56)     .0012                       

(X_U3.57)    3.5673                   (X_U3.61) 109.5E-06                       

(X_U3.62) 58.20E-12                   (X_U3.70) 1.000E-06                       

(X_U3.71)    2.5000                   (X_U3.96)    3.5673                       

(X_U3.98) 1.079E-06                   (X_U3.99) 2.272E-06                   




    VOLTAGE SOURCE CURRENTS
    NAME         CURRENT

    V_V4        -2.588E-04
    V_V5         0.000E+00
    X_U3.V10     5.000E-05
    X_U3.V16     2.828E-12
    X_U3.V13     2.829E-12

    TOTAL POWER DISSIPATION   1.32E-03  WATTS


**** 02/20/20 17:35:38 ******* PSpice 17.4.0 (Nov 2018) ******* ID# 0 ********

 ** Profile: "SCHEMATIC1-test"  [ C:\Users\Heol\Downloads\VCF\VCF-PSpiceFiles\SCHEMATIC1\test.sim ] 


 ****     SMALL SIGNAL BIAS SOLUTION       TEMPERATURE =   27.000 DEG C

 ****     CURRENT STEP                     PARAM K =     .29  


******************************************************************************



 NODE   VOLTAGE     NODE   VOLTAGE     NODE   VOLTAGE     NODE   VOLTAGE


(   IN)    1.5000  (  OUT)    0.0000  (  VCC)    5.0000  (N06157)    3.5673     

(N06219)     .0181 (N06231)    3.5673 (N06339)    1.5787 (N06345)     .6213     

(N06351)    2.4994 (N06499)     .2272 (N06665)    2.5000 (X_U3.10)    5.5000    

(X_U3.11)    5.3275                   (X_U3.12)    5.3275                       

(X_U3.13)    5.3000                   (X_U3.14)    2.4994                       

(X_U3.15)    2.1543                   (X_U3.16)    -.3000                       

(X_U3.20)     .5137                   (X_U3.21)    -.5137                       

(X_U3.26)-135.0E-06                   (X_U3.27)-241.5E-06                       

(X_U3.30)     .0022                   (X_U3.31)  111.2500                       

(X_U3.32) -130.2000                   (X_U3.33)     .0022                       

(X_U3.34)     .9391                   (X_U3.35)     .9391                       

(X_U3.37)     .9391                   (X_U3.38)     .9391                       

(X_U3.39)     .9391                   (X_U3.50)     .0023                       

(X_U3.51)     .0023                   (X_U3.52) 229.7E-12                       

(X_U3.55)    4.9992                   (X_U3.56)     .0012                       

(X_U3.57)    3.5673                   (X_U3.61) 109.5E-06                       

(X_U3.62) 58.20E-12                   (X_U3.70) 1.000E-06                       

(X_U3.71)    2.5000                   (X_U3.96)    3.5673                       

(X_U3.98) 1.079E-06                   (X_U3.99) 2.272E-06                   




    VOLTAGE SOURCE CURRENTS
    NAME         CURRENT

    V_V4        -2.557E-04
    V_V5         0.000E+00
    X_U3.V10     5.000E-05
    X_U3.V16     2.828E-12
    X_U3.V13     2.829E-12

    TOTAL POWER DISSIPATION   1.30E-03  WATTS


**** 02/20/20 17:35:38 ******* PSpice 17.4.0 (Nov 2018) ******* ID# 0 ********

 ** Profile: "SCHEMATIC1-test"  [ C:\Users\Heol\Downloads\VCF\VCF-PSpiceFiles\SCHEMATIC1\test.sim ] 


 ****     SMALL SIGNAL BIAS SOLUTION       TEMPERATURE =   27.000 DEG C

 ****     CURRENT STEP                     PARAM K =     .3   


******************************************************************************



 NODE   VOLTAGE     NODE   VOLTAGE     NODE   VOLTAGE     NODE   VOLTAGE


(   IN)    1.5000  (  OUT)    0.0000  (  VCC)    5.0000  (N06157)    3.5673     

(N06219)     .0181 (N06231)    3.5673 (N06339)    1.5494 (N06345)     .6205     

(N06351)    2.4994 (N06499)     .2272 (N06665)    2.5000 (X_U3.10)    5.5000    

(X_U3.11)    5.3275                   (X_U3.12)    5.3275                       

(X_U3.13)    5.3000                   (X_U3.14)    2.4994                       

(X_U3.15)    2.1543                   (X_U3.16)    -.3000                       

(X_U3.20)     .5137                   (X_U3.21)    -.5137                       

(X_U3.26)-135.0E-06                   (X_U3.27)-241.5E-06                       

(X_U3.30)     .0022                   (X_U3.31)  111.2500                       

(X_U3.32) -130.2000                   (X_U3.33)     .0022                       

(X_U3.34)     .9391                   (X_U3.35)     .9391                       

(X_U3.37)     .9391                   (X_U3.38)     .9391                       

(X_U3.39)     .9391                   (X_U3.50)     .0023                       

(X_U3.51)     .0023                   (X_U3.52) 229.7E-12                       

(X_U3.55)    4.9992                   (X_U3.56)     .0012                       

(X_U3.57)    3.5673                   (X_U3.61) 109.5E-06                       

(X_U3.62) 58.20E-12                   (X_U3.70) 1.000E-06                       

(X_U3.71)    2.5000                   (X_U3.96)    3.5673                       

(X_U3.98) 1.079E-06                   (X_U3.99) 2.272E-06                   




    VOLTAGE SOURCE CURRENTS
    NAME         CURRENT

    V_V4        -2.528E-04
    V_V5         0.000E+00
    X_U3.V10     5.000E-05
    X_U3.V16     2.828E-12
    X_U3.V13     2.829E-12

    TOTAL POWER DISSIPATION   1.29E-03  WATTS


**** 02/20/20 17:35:38 ******* PSpice 17.4.0 (Nov 2018) ******* ID# 0 ********

 ** Profile: "SCHEMATIC1-test"  [ C:\Users\Heol\Downloads\VCF\VCF-PSpiceFiles\SCHEMATIC1\test.sim ] 


 ****     SMALL SIGNAL BIAS SOLUTION       TEMPERATURE =   27.000 DEG C

 ****     CURRENT STEP                     PARAM K =     .31  


******************************************************************************



 NODE   VOLTAGE     NODE   VOLTAGE     NODE   VOLTAGE     NODE   VOLTAGE


(   IN)    1.5000  (  OUT)    0.0000  (  VCC)    5.0000  (N06157)    3.5673     

(N06219)     .0181 (N06231)    3.5673 (N06339)    1.5214 (N06345)     .6198     

(N06351)    2.4994 (N06499)     .2272 (N06665)    2.5000 (X_U3.10)    5.5000    

(X_U3.11)    5.3275                   (X_U3.12)    5.3275                       

(X_U3.13)    5.3000                   (X_U3.14)    2.4994                       

(X_U3.15)    2.1543                   (X_U3.16)    -.3000                       

(X_U3.20)     .5137                   (X_U3.21)    -.5137                       

(X_U3.26)-135.0E-06                   (X_U3.27)-241.5E-06                       

(X_U3.30)     .0022                   (X_U3.31)  111.2500                       

(X_U3.32) -130.2000                   (X_U3.33)     .0022                       

(X_U3.34)     .9391                   (X_U3.35)     .9391                       

(X_U3.37)     .9391                   (X_U3.38)     .9391                       

(X_U3.39)     .9391                   (X_U3.50)     .0023                       

(X_U3.51)     .0023                   (X_U3.52) 229.7E-12                       

(X_U3.55)    4.9992                   (X_U3.56)     .0012                       

[...]

(X_U3.55)    4.9992                   (X_U3.56)     .0012                       

(X_U3.57)    3.5673                   (X_U3.61) 109.5E-06                       

(X_U3.62) 58.20E-12                   (X_U3.70) 1.000E-06                       

(X_U3.71)    2.5000                   (X_U3.96)    3.5673                       

(X_U3.98) 1.079E-06                   (X_U3.99) 2.272E-06                   




    VOLTAGE SOURCE CURRENTS
    NAME         CURRENT

    V_V4        -1.878E-04
    V_V5         0.000E+00
    X_U3.V10     5.000E-05
    X_U3.V16     2.828E-12
    X_U3.V13     2.829E-12

    TOTAL POWER DISSIPATION   9.64E-04  WATTS


**** 02/20/20 17:35:38 ******* PSpice 17.4.0 (Nov 2018) ******* ID# 0 ********

 ** Profile: "SCHEMATIC1-test"  [ C:\Users\Heol\Downloads\VCF\VCF-PSpiceFiles\SCHEMATIC1\test.sim ] 


 ****     SMALL SIGNAL BIAS SOLUTION       TEMPERATURE =   27.000 DEG C

 ****     CURRENT STEP                     PARAM K =     .93  


******************************************************************************



 NODE   VOLTAGE     NODE   VOLTAGE     NODE   VOLTAGE     NODE   VOLTAGE


(   IN)    1.5000  (  OUT)    0.0000  (  VCC)    5.0000  (N06157)    3.5673     

(N06219)     .0181 (N06231)    3.5673 (N06339)     .3500 (N06345)     .3500     

(N06351)    2.4994 (N06499)     .2272 (N06665)    2.5000 (X_U3.10)    5.5000    

(X_U3.11)    5.3275                   (X_U3.12)    5.3275                       

(X_U3.13)    5.3000                   (X_U3.14)    2.4994                       

(X_U3.15)    2.1543                   (X_U3.16)    -.3000                       

(X_U3.20)     .5137                   (X_U3.21)    -.5137                       

(X_U3.26)-135.0E-06                   (X_U3.27)-241.5E-06                       

(X_U3.30)     .0022                   (X_U3.31)  111.2500                       

(X_U3.32) -130.2000                   (X_U3.33)     .0022                       

(X_U3.34)     .9391                   (X_U3.35)     .9391                       

(X_U3.37)     .9391                   (X_U3.38)     .9391                       

(X_U3.39)     .9391                   (X_U3.50)     .0023                       

(X_U3.51)     .0023                   (X_U3.52) 229.7E-12                       

(X_U3.55)    4.9992                   (X_U3.56)     .0012                       

(X_U3.57)    3.5673                   (X_U3.61) 109.5E-06                       

(X_U3.62) 58.20E-12                   (X_U3.70) 1.000E-06                       

(X_U3.71)    2.5000                   (X_U3.96)    3.5673                       

(X_U3.98) 1.079E-06                   (X_U3.99) 2.272E-06                   




    VOLTAGE SOURCE CURRENTS
    NAME         CURRENT

    V_V4        -1.878E-04
    V_V5         0.000E+00
    X_U3.V10     5.000E-05
    X_U3.V16     2.828E-12
    X_U3.V13     2.829E-12

    TOTAL POWER DISSIPATION   9.64E-04  WATTS


**** 02/20/20 17:35:38 ******* PSpice 17.4.0 (Nov 2018) ******* ID# 0 ********

 ** Profile: "SCHEMATIC1-test"  [ C:\Users\Heol\Downloads\VCF\VCF-PSpiceFiles\SCHEMATIC1\test.sim ] 


 ****     SMALL SIGNAL BIAS SOLUTION       TEMPERATURE =   27.000 DEG C

 ****     CURRENT STEP                     PARAM K =     .94  


******************************************************************************



 NODE   VOLTAGE     NODE   VOLTAGE     NODE   VOLTAGE     NODE   VOLTAGE


(   IN)    1.5000  (  OUT)    0.0000  (  VCC)    5.0000  (N06157)    3.5673     

(N06219)     .0182 (N06231)    3.5673 (N06339)     .3000 (N06345)     .3000     

(N06351)    2.4994 (N06499)     .2272 (N06665)    2.5000 (X_U3.10)    5.5000    

(X_U3.11)    5.3275                   (X_U3.12)    5.3275                       

(X_U3.13)    5.3000                   (X_U3.14)    2.4994                       

(X_U3.15)    2.1543                   (X_U3.16)    -.3000                       

(X_U3.20)     .5137                   (X_U3.21)    -.5137                       

(X_U3.26)-135.0E-06                   (X_U3.27)-241.5E-06                       

(X_U3.30)     .0022                   (X_U3.31)  111.2500                       

(X_U3.32) -130.2000                   (X_U3.33)     .0022                       

(X_U3.34)     .9391                   (X_U3.35)     .9391                       

(X_U3.37)     .9391                   (X_U3.38)     .9391                       

(X_U3.39)     .9391                   (X_U3.50)     .0023                       

(X_U3.51)     .0023                   (X_U3.52) 229.7E-12                       

(X_U3.55)    4.9992                   (X_U3.56)     .0012                       

(X_U3.57)    3.5673                   (X_U3.61) 109.5E-06                       

(X_U3.62) 58.20E-12                   (X_U3.70) 1.000E-06                       

(X_U3.71)    2.5000                   (X_U3.96)    3.5673                       

(X_U3.98) 1.079E-06                   (X_U3.99) 2.272E-06                   




    VOLTAGE SOURCE CURRENTS
    NAME         CURRENT

    V_V4        -1.878E-04
    V_V5         0.000E+00
    X_U3.V10     5.000E-05
    X_U3.V16     2.828E-12
    X_U3.V13     2.829E-12

    TOTAL POWER DISSIPATION   9.64E-04  WATTS


**** 02/20/20 17:35:38 ******* PSpice 17.4.0 (Nov 2018) ******* ID# 0 ********

 ** Profile: "SCHEMATIC1-test"  [ C:\Users\Heol\Downloads\VCF\VCF-PSpiceFiles\SCHEMATIC1\test.sim ] 


 ****     SMALL SIGNAL BIAS SOLUTION       TEMPERATURE =   27.000 DEG C

 ****     CURRENT STEP                     PARAM K =     .95  


******************************************************************************



 NODE   VOLTAGE     NODE   VOLTAGE     NODE   VOLTAGE     NODE   VOLTAGE


(   IN)    1.5000  (  OUT)    0.0000  (  VCC)    5.0000  (N06157)    3.5673     

(N06219)     .0184 (N06231)    3.5673 (N06339)     .2500 (N06345)     .2500     

(N06351)    2.4994 (N06499)     .2272 (N06665)    2.5000 (X_U3.10)    5.5000    

(X_U3.11)    5.3275                   (X_U3.12)    5.3275                       

(X_U3.13)    5.3000                   (X_U3.14)    2.4994                       

(X_U3.15)    2.1543                   (X_U3.16)    -.3000                       

(X_U3.20)     .5137                   (X_U3.21)    -.5137                       

(X_U3.26)-135.0E-06                   (X_U3.27)-241.5E-06                       

(X_U3.30)     .0022                   (X_U3.31)  111.2500                       

(X_U3.32) -130.2000                   (X_U3.33)     .0022                       

(X_U3.34)     .9391                   (X_U3.35)     .9391                       

(X_U3.37)     .9391                   (X_U3.38)     .9391                       

(X_U3.39)     .9391                   (X_U3.50)     .0023                       

(X_U3.51)     .0023                   (X_U3.52) 229.7E-12                       

(X_U3.55)    4.9992                   (X_U3.56)     .0012                       

(X_U3.57)    3.5673                   (X_U3.61) 109.5E-06                       

(X_U3.62) 58.20E-12                   (X_U3.70) 1.000E-06                       

(X_U3.71)    2.5000                   (X_U3.96)    3.5673                       

(X_U3.98) 1.079E-06                   (X_U3.99) 2.272E-06                   




    VOLTAGE SOURCE CURRENTS
    NAME         CURRENT

    V_V4        -1.878E-04
    V_V5         0.000E+00
    X_U3.V10     5.000E-05
    X_U3.V16     2.828E-12
    X_U3.V13     2.829E-12

    TOTAL POWER DISSIPATION   9.64E-04  WATTS


**** 02/20/20 17:35:38 ******* PSpice 17.4.0 (Nov 2018) ******* ID# 0 ********

 ** Profile: "SCHEMATIC1-test"  [ C:\Users\Heol\Downloads\VCF\VCF-PSpiceFiles\SCHEMATIC1\test.sim ] 


 ****     SMALL SIGNAL BIAS SOLUTION       TEMPERATURE =   27.000 DEG C

 ****     CURRENT STEP                     PARAM K =     .96  


******************************************************************************



 NODE   VOLTAGE     NODE   VOLTAGE     NODE   VOLTAGE     NODE   VOLTAGE


(   IN)    1.5000  (  OUT)    0.0000  (  VCC)    5.0000  (N06157)    3.5673     

(N06219)     .0191 (N06231)    3.5673 (N06339)     .2000 (N06345)     .2000     

(N06351)    2.4994 (N06499)     .2272 (N06665)    2.5000 (X_U3.10)    5.5000    

(X_U3.11)    5.3275                   (X_U3.12)    5.3275                       

(X_U3.13)    5.3000                   (X_U3.14)    2.4994                       

(X_U3.15)    2.1543                   (X_U3.16)    -.3000                       

(X_U3.20)     .5137                   (X_U3.21)    -.5137                       

(X_U3.26)-135.0E-06                   (X_U3.27)-241.5E-06                       

(X_U3.30)     .0022                   (X_U3.31)  111.2500                       

(X_U3.32) -130.2000                   (X_U3.33)     .0022                       

(X_U3.34)     .9391                   (X_U3.35)     .9391                       

(X_U3.37)     .9391                   (X_U3.38)     .9391                       

(X_U3.39)     .9391                   (X_U3.50)     .0023                       

(X_U3.51)     .0023                   (X_U3.52) 229.7E-12                       

(X_U3.55)    4.9992                   (X_U3.56)     .0012                       

(X_U3.57)    3.5673                   (X_U3.61) 109.5E-06                       

(X_U3.62) 58.20E-12                   (X_U3.70) 1.000E-06                       

(X_U3.71)    2.5000                   (X_U3.96)    3.5673                       

(X_U3.98) 1.079E-06                   (X_U3.99) 2.272E-06                   




    VOLTAGE SOURCE CURRENTS
    NAME         CURRENT

    V_V4        -1.878E-04
    V_V5         0.000E+00
    X_U3.V10     5.000E-05
    X_U3.V16     2.828E-12
    X_U3.V13     2.829E-12

    TOTAL POWER DISSIPATION   9.64E-04  WATTS


**** 02/20/20 17:35:38 ******* PSpice 17.4.0 (Nov 2018) ******* ID# 0 ********

 ** Profile: "SCHEMATIC1-test"  [ C:\Users\Heol\Downloads\VCF\VCF-PSpiceFiles\SCHEMATIC1\test.sim ] 


 ****     SMALL SIGNAL BIAS SOLUTION       TEMPERATURE =   27.000 DEG C

 ****     CURRENT STEP                     PARAM K =     .97  


******************************************************************************



 NODE   VOLTAGE     NODE   VOLTAGE     NODE   VOLTAGE     NODE   VOLTAGE


(   IN)    1.5000  (  OUT)    0.0000  (  VCC)    5.0000  (N06157)    3.5673     

(N06219)     .0212 (N06231)    3.5673 (N06339)     .1500 (N06345)     .1500     

(N06351)    2.4994 (N06499)     .2272 (N06665)    2.5000 (X_U3.10)    5.5000    

(X_U3.11)    5.3275                   (X_U3.12)    5.3275                       

(X_U3.13)    5.3000                   (X_U3.14)    2.4994                       

(X_U3.15)    2.1543                   (X_U3.16)    -.3000                       

(X_U3.20)     .5137                   (X_U3.21)    -.5137                       

(X_U3.26)-135.0E-06                   (X_U3.27)-241.5E-06                       

(X_U3.30)     .0022                   (X_U3.31)  111.2500                       

(X_U3.32) -130.2000                   (X_U3.33)     .0022                       

(X_U3.34)     .9391                   (X_U3.35)     .9391                       

(X_U3.37)     .9391                   (X_U3.38)     .9391                       

(X_U3.39)     .9391                   (X_U3.50)     .0023                       

(X_U3.51)     .0023                   (X_U3.52) 229.7E-12                       

(X_U3.55)    4.9992                   (X_U3.56)     .0012                       

(X_U3.57)    3.5673                   (X_U3.61) 109.5E-06                       

(X_U3.62) 58.20E-12                   (X_U3.70) 1.000E-06                       

(X_U3.71)    2.5000                   (X_U3.96)    3.5673                       

(X_U3.98) 1.079E-06                   (X_U3.99) 2.272E-06                   




    VOLTAGE SOURCE CURRENTS
    NAME         CURRENT

    V_V4        -1.878E-04
    V_V5         0.000E+00
    X_U3.V10     5.000E-05
    X_U3.V16     2.828E-12
    X_U3.V13     2.829E-12

    TOTAL POWER DISSIPATION   9.64E-04  WATTS


**** 02/20/20 17:35:38 ******* PSpice 17.4.0 (Nov 2018) ******* ID# 0 ********

 ** Profile: "SCHEMATIC1-test"  [ C:\Users\Heol\Downloads\VCF\VCF-PSpiceFiles\SCHEMATIC1\test.sim ] 


 ****     SMALL SIGNAL BIAS SOLUTION       TEMPERATURE =   27.000 DEG C

 ****     CURRENT STEP                     PARAM K =     .98  


******************************************************************************



 NODE   VOLTAGE     NODE   VOLTAGE     NODE   VOLTAGE     NODE   VOLTAGE


(   IN)    1.5000  (  OUT)    0.0000  (  VCC)    5.0000  (N06157)    3.5673     

(N06219)     .0258 (N06231)    3.5673 (N06339)     .1000 (N06345)     .1000     

(N06351)    2.4994 (N06499)     .2272 (N06665)    2.5000 (X_U3.10)    5.5000    

(X_U3.11)    5.3275                   (X_U3.12)    5.3275                       

(X_U3.13)    5.3000                   (X_U3.14)    2.4994                       

(X_U3.15)    2.1543                   (X_U3.16)    -.3000                       

(X_U3.20)     .5137                   (X_U3.21)    -.5137                       

(X_U3.26)-135.0E-06                   (X_U3.27)-241.5E-06                       

(X_U3.30)     .0022                   (X_U3.31)  111.2500                       

(X_U3.32) -130.2000                   (X_U3.33)     .0022                       

(X_U3.34)     .9391                   (X_U3.35)     .9391                       

(X_U3.37)     .9391                   (X_U3.38)     .9391                       

(X_U3.39)     .9391                   (X_U3.50)     .0023                       

(X_U3.51)     .0023                   (X_U3.52) 229.7E-12                       

(X_U3.55)    4.9992                   (X_U3.56)     .0012                       

(X_U3.57)    3.5673                   (X_U3.61) 109.5E-06                       

(X_U3.62) 58.20E-12                   (X_U3.70) 1.000E-06                       

(X_U3.71)    2.5000                   (X_U3.96)    3.5673                       

(X_U3.98) 1.079E-06                   (X_U3.99) 2.272E-06                   




    VOLTAGE SOURCE CURRENTS
    NAME         CURRENT

    V_V4        -1.878E-04
    V_V5         0.000E+00
    X_U3.V10     5.000E-05
    X_U3.V16     2.828E-12
    X_U3.V13     2.829E-12

    TOTAL POWER DISSIPATION   9.64E-04  WATTS


**** 02/20/20 17:35:38 ******* PSpice 17.4.0 (Nov 2018) ******* ID# 0 ********

 ** Profile: "SCHEMATIC1-test"  [ C:\Users\Heol\Downloads\VCF\VCF-PSpiceFiles\SCHEMATIC1\test.sim ] 


 ****     SMALL SIGNAL BIAS SOLUTION       TEMPERATURE =   27.000 DEG C

 ****     CURRENT STEP                     PARAM K =     .99  


******************************************************************************



 NODE   VOLTAGE     NODE   VOLTAGE     NODE   VOLTAGE     NODE   VOLTAGE


(   IN)    1.5000  (  OUT)    0.0000  (  VCC)    5.0000  (N06157)    3.5673     

(N06219)     .0225 (N06231)    3.5673 (N06339)     .0500 (N06345)     .0500     

(N06351)    2.4994 (N06499)     .2272 (N06665)    2.5000 (X_U3.10)    5.5000    

(X_U3.11)    5.3275                   (X_U3.12)    5.3275                       

(X_U3.13)    5.3000                   (X_U3.14)    2.4994                       

(X_U3.15)    2.1543                   (X_U3.16)    -.3000                       

(X_U3.20)     .5137                   (X_U3.21)    -.5137                       

(X_U3.26)-135.0E-06                   (X_U3.27)-241.5E-06                       

(X_U3.30)     .0022                   (X_U3.31)  111.2500                       

(X_U3.32) -130.2000                   (X_U3.33)     .0022                       

(X_U3.34)     .9391                   (X_U3.35)     .9391                       

(X_U3.37)     .9391                   (X_U3.38)     .9391                       

(X_U3.39)     .9391                   (X_U3.50)     .0023                       

(X_U3.51)     .0023                   (X_U3.52) 229.7E-12                       

(X_U3.55)    4.9992                   (X_U3.56)     .0012                       

(X_U3.57)    3.5673                   (X_U3.61) 109.5E-06                       

(X_U3.62) 58.20E-12                   (X_U3.70) 1.000E-06                       

(X_U3.71)    2.5000                   (X_U3.96)    3.5673                       

(X_U3.98) 1.079E-06                   (X_U3.99) 2.272E-06                   




    VOLTAGE SOURCE CURRENTS
    NAME         CURRENT

    V_V4        -1.878E-04
    V_V5         0.000E+00
    X_U3.V10     5.000E-05
    X_U3.V16     2.828E-12
    X_U3.V13     2.829E-12

    TOTAL POWER DISSIPATION   9.64E-04  WATTS


**** 02/20/20 17:35:38 ******* PSpice 17.4.0 (Nov 2018) ******* ID# 0 ********

 ** Profile: "SCHEMATIC1-test"  [ C:\Users\Heol\Downloads\VCF\VCF-PSpiceFiles\SCHEMATIC1\test.sim ] 


 ****     SMALL SIGNAL BIAS SOLUTION       TEMPERATURE =   27.000 DEG C

 ****     CURRENT STEP                     PARAM K =    1     


******************************************************************************



 NODE   VOLTAGE     NODE   VOLTAGE     NODE   VOLTAGE     NODE   VOLTAGE


(   IN)    1.5000  (  OUT)    0.0000  (  VCC)    5.0000  (N06157)    3.5673     

(N06219) 27.33E-09 (N06231)    3.5673 (N06339) 50.00E-09 (N06345) 50.00E-09     

(N06351)    2.4994 (N06499)     .2272 (N06665)    2.5000 (X_U3.10)    5.5000    

(X_U3.11)    5.3275                   (X_U3.12)    5.3275                       

(X_U3.13)    5.3000                   (X_U3.14)    2.4994                       

(X_U3.15)    2.1543                   (X_U3.16)    -.3000                       

(X_U3.20)     .5137                   (X_U3.21)    -.5137                       

(X_U3.26)-135.0E-06                   (X_U3.27)-241.5E-06                       

(X_U3.30)     .0022                   (X_U3.31)  111.2500                       

(X_U3.32) -130.2000                   (X_U3.33)     .0022                       

(X_U3.34)     .9391                   (X_U3.35)     .9391                       

(X_U3.37)     .9391                   (X_U3.38)     .9391                       

(X_U3.39)     .9391                   (X_U3.50)     .0023                       

(X_U3.51)     .0023                   (X_U3.52) 229.7E-12                       

(X_U3.55)    4.9992                   (X_U3.56)     .0012                       

(X_U3.57)    3.5673                   (X_U3.61) 109.5E-06                       

(X_U3.62) 58.20E-12                   (X_U3.70) 1.000E-06                       

(X_U3.71)    2.5000                   (X_U3.96)    3.5673                       

(X_U3.98) 1.079E-06                   (X_U3.99) 2.272E-06                   




    VOLTAGE SOURCE CURRENTS
    NAME         CURRENT

    V_V4        -1.878E-04
    V_V5         0.000E+00
    X_U3.V10     5.000E-05
    X_U3.V16     2.828E-12
    X_U3.V13     2.829E-12

    TOTAL POWER DISSIPATION   9.64E-04  WATTS



          JOB CONCLUDED

**** 02/20/20 17:35:38 ******* PSpice 17.4.0 (Nov 2018) ******* ID# 0 ********

 ** Profile: "SCHEMATIC1-test"  [ C:\Users\Heol\Downloads\VCF\VCF-PSpiceFiles\SCHEMATIC1\test.sim ] 


 ****     JOB STATISTICS SUMMARY

 ****     CURRENT STEP                     PARAM K =    1     


******************************************************************************



  License check-out time            =      660.06
  Total job time (using Solver 1)   =       11.22
